# generated using pymatgen
data_Al2H5C5O8
_symmetry_space_group_name_H-M   'P 1'
_cell_length_a   31.84116729
_cell_length_b   26.66323808
_cell_length_c   29.99050400
_cell_angle_alpha   92.12523607
_cell_angle_beta   94.61281425
_cell_angle_gamma   92.21518838
_symmetry_Int_Tables_number   1
_chemical_formula_structural   Al2H5C5O8
_chemical_formula_sum   'Al192 H480 C480 O768'
_cell_volume   25339.50246018
_cell_formula_units_Z   96
loop_
 _symmetry_equiv_pos_site_id
 _symmetry_equiv_pos_as_xyz
  1  'x, y, z'
loop_
 _atom_site_type_symbol
 _atom_site_label
 _atom_site_symmetry_multiplicity
 _atom_site_fract_x
 _atom_site_fract_y
 _atom_site_fract_z
 _atom_site_occupancy
  Al  Al1  1  0.16324542  0.07290325  0.15378821  1.0
  Al  Al1  1  0.16324542  0.07290325  0.40378821  1.0
  Al  Al1  1  0.16324542  0.07290325  0.65378821  1.0
  Al  Al1  1  0.16324542  0.07290325  0.90378821  1.0
  Al  Al1  1  0.49657875  0.07290325  0.32045488  1.0
  Al  Al1  1  0.49657875  0.07290325  0.57045488  1.0
  Al  Al1  1  0.49657875  0.07290325  0.82045488  1.0
  Al  Al1  1  0.49657875  0.07290325  0.07045488  1.0
  Al  Al1  1  0.24657875  0.32290325  0.19545488  1.0
  Al  Al1  1  0.24657875  0.32290325  0.44545488  1.0
  Al  Al1  1  0.24657875  0.32290325  0.69545488  1.0
  Al  Al1  1  0.24657875  0.32290325  0.94545488  1.0
  Al  Al1  1  0.82991208  0.07290325  0.23712154  1.0
  Al  Al1  1  0.82991208  0.07290325  0.48712154  1.0
  Al  Al1  1  0.82991208  0.07290325  0.73712154  1.0
  Al  Al1  1  0.82991208  0.07290325  0.98712154  1.0
  Al  Al1  1  0.57991208  0.32290325  0.36212154  1.0
  Al  Al1  1  0.57991208  0.32290325  0.61212154  1.0
  Al  Al1  1  0.57991208  0.32290325  0.86212154  1.0
  Al  Al1  1  0.57991208  0.32290325  0.11212154  1.0
  Al  Al1  1  0.32991208  0.57290325  0.23712154  1.0
  Al  Al1  1  0.32991208  0.57290325  0.48712154  1.0
  Al  Al1  1  0.32991208  0.57290325  0.73712154  1.0
  Al  Al1  1  0.32991208  0.57290325  0.98712154  1.0
  Al  Al1  1  0.91324542  0.32290325  0.27878821  1.0
  Al  Al1  1  0.91324542  0.32290325  0.52878821  1.0
  Al  Al1  1  0.91324542  0.32290325  0.77878821  1.0
  Al  Al1  1  0.91324542  0.32290325  0.02878821  1.0
  Al  Al1  1  0.66324542  0.57290325  0.15378821  1.0
  Al  Al1  1  0.66324542  0.57290325  0.40378821  1.0
  Al  Al1  1  0.66324542  0.57290325  0.65378821  1.0
  Al  Al1  1  0.66324542  0.57290325  0.90378821  1.0
  Al  Al1  1  0.41324542  0.82290325  0.27878821  1.0
  Al  Al1  1  0.41324542  0.82290325  0.52878821  1.0
  Al  Al1  1  0.41324542  0.82290325  0.77878821  1.0
  Al  Al1  1  0.41324542  0.82290325  0.02878821  1.0
  Al  Al1  1  0.99657875  0.57290325  0.32045488  1.0
  Al  Al1  1  0.99657875  0.57290325  0.57045488  1.0
  Al  Al1  1  0.99657875  0.57290325  0.82045488  1.0
  Al  Al1  1  0.99657875  0.57290325  0.07045488  1.0
  Al  Al1  1  0.74657875  0.82290325  0.19545488  1.0
  Al  Al1  1  0.74657875  0.82290325  0.44545488  1.0
  Al  Al1  1  0.74657875  0.82290325  0.69545488  1.0
  Al  Al1  1  0.74657875  0.82290325  0.94545488  1.0
  Al  Al1  1  0.07991208  0.82290325  0.36212154  1.0
  Al  Al1  1  0.07991208  0.82290325  0.61212154  1.0
  Al  Al1  1  0.07991208  0.82290325  0.86212154  1.0
  Al  Al1  1  0.07991208  0.82290325  0.11212154  1.0
  Al  Al2  1  0.92035958  0.17680975  0.13650204  1.0
  Al  Al2  1  0.92035958  0.17680975  0.38650204  1.0
  Al  Al2  1  0.92035958  0.17680975  0.63650204  1.0
  Al  Al2  1  0.92035958  0.17680975  0.88650204  1.0
  Al  Al2  1  0.25369292  0.17680975  0.30316871  1.0
  Al  Al2  1  0.25369292  0.17680975  0.55316871  1.0
  Al  Al2  1  0.25369292  0.17680975  0.80316871  1.0
  Al  Al2  1  0.25369292  0.17680975  0.05316871  1.0
  Al  Al2  1  0.00369292  0.42680975  0.17816871  1.0
  Al  Al2  1  0.00369292  0.42680975  0.42816871  1.0
  Al  Al2  1  0.00369292  0.42680975  0.67816871  1.0
  Al  Al2  1  0.00369292  0.42680975  0.92816871  1.0
  Al  Al2  1  0.58702625  0.17680975  0.21983537  1.0
  Al  Al2  1  0.58702625  0.17680975  0.46983538  1.0
  Al  Al2  1  0.58702625  0.17680975  0.71983538  1.0
  Al  Al2  1  0.58702625  0.17680975  0.96983538  1.0
  Al  Al2  1  0.33702625  0.42680975  0.34483538  1.0
  Al  Al2  1  0.33702625  0.42680975  0.59483538  1.0
  Al  Al2  1  0.33702625  0.42680975  0.84483538  1.0
  Al  Al2  1  0.33702625  0.42680975  0.09483538  1.0
  Al  Al2  1  0.08702625  0.67680975  0.21983538  1.0
  Al  Al2  1  0.08702625  0.67680975  0.46983538  1.0
  Al  Al2  1  0.08702625  0.67680975  0.71983538  1.0
  Al  Al2  1  0.08702625  0.67680975  0.96983538  1.0
  Al  Al2  1  0.67035958  0.42680975  0.26150204  1.0
  Al  Al2  1  0.67035958  0.42680975  0.51150204  1.0
  Al  Al2  1  0.67035958  0.42680975  0.76150204  1.0
  Al  Al2  1  0.67035958  0.42680975  0.01150204  1.0
  Al  Al2  1  0.42035958  0.67680975  0.13650204  1.0
  Al  Al2  1  0.42035958  0.67680975  0.38650204  1.0
  Al  Al2  1  0.42035958  0.67680975  0.63650204  1.0
  Al  Al2  1  0.42035958  0.67680975  0.88650204  1.0
  Al  Al2  1  0.17035958  0.92680975  0.26150204  1.0
  Al  Al2  1  0.17035958  0.92680975  0.51150204  1.0
  Al  Al2  1  0.17035958  0.92680975  0.76150204  1.0
  Al  Al2  1  0.17035958  0.92680975  0.01150204  1.0
  Al  Al2  1  0.75369292  0.67680975  0.30316871  1.0
  Al  Al2  1  0.75369292  0.67680975  0.55316871  1.0
  Al  Al2  1  0.75369292  0.67680975  0.80316871  1.0
  Al  Al2  1  0.75369292  0.67680975  0.05316871  1.0
  Al  Al2  1  0.50369292  0.92680975  0.17816871  1.0
  Al  Al2  1  0.50369292  0.92680975  0.42816871  1.0
  Al  Al2  1  0.50369292  0.92680975  0.67816871  1.0
  Al  Al2  1  0.50369292  0.92680975  0.92816871  1.0
  Al  Al2  1  0.83702625  0.92680975  0.34483538  1.0
  Al  Al2  1  0.83702625  0.92680975  0.59483538  1.0
  Al  Al2  1  0.83702625  0.92680975  0.84483538  1.0
  Al  Al2  1  0.83702625  0.92680975  0.09483537  1.0
  Al  Al3  1  0.91679050  0.24984550  0.95765650  1.0
  Al  Al3  1  0.91679050  0.24984550  0.20765650  1.0
  Al  Al3  1  0.91679050  0.24984550  0.45765650  1.0
  Al  Al3  1  0.91679050  0.24984550  0.70765650  1.0
  Al  Al3  1  0.25012383  0.24984550  0.12432317  1.0
  Al  Al3  1  0.25012383  0.24984550  0.37432317  1.0
  Al  Al3  1  0.25012383  0.24984550  0.62432317  1.0
  Al  Al3  1  0.25012383  0.24984550  0.87432317  1.0
  Al  Al3  1  0.00012383  0.49984550  0.99932317  1.0
  Al  Al3  1  0.00012383  0.49984550  0.24932317  1.0
  Al  Al3  1  0.00012383  0.49984550  0.49932317  1.0
  Al  Al3  1  0.00012383  0.49984550  0.74932317  1.0
  Al  Al3  1  0.58345717  0.24984550  0.04098983  1.0
  Al  Al3  1  0.58345717  0.24984550  0.29098983  1.0
  Al  Al3  1  0.58345717  0.24984550  0.54098983  1.0
  Al  Al3  1  0.58345717  0.24984550  0.79098983  1.0
  Al  Al3  1  0.33345717  0.49984550  0.16598983  1.0
  Al  Al3  1  0.33345717  0.49984550  0.41598983  1.0
  Al  Al3  1  0.33345717  0.49984550  0.66598983  1.0
  Al  Al3  1  0.33345717  0.49984550  0.91598983  1.0
  Al  Al3  1  0.08345717  0.74984550  0.04098983  1.0
  Al  Al3  1  0.08345717  0.74984550  0.29098983  1.0
  Al  Al3  1  0.08345717  0.74984550  0.54098983  1.0
  Al  Al3  1  0.08345717  0.74984550  0.79098983  1.0
  Al  Al3  1  0.66679050  0.49984550  0.08265650  1.0
  Al  Al3  1  0.66679050  0.49984550  0.33265650  1.0
  Al  Al3  1  0.66679050  0.49984550  0.58265650  1.0
  Al  Al3  1  0.66679050  0.49984550  0.83265650  1.0
  Al  Al3  1  0.41679050  0.74984550  0.95765650  1.0
  Al  Al3  1  0.41679050  0.74984550  0.20765650  1.0
  Al  Al3  1  0.41679050  0.74984550  0.45765650  1.0
  Al  Al3  1  0.41679050  0.74984550  0.70765650  1.0
  Al  Al3  1  0.16679050  0.99984550  0.08265650  1.0
  Al  Al3  1  0.16679050  0.99984550  0.33265650  1.0
  Al  Al3  1  0.16679050  0.99984550  0.58265650  1.0
  Al  Al3  1  0.16679050  0.99984550  0.83265650  1.0
  Al  Al3  1  0.75012383  0.74984550  0.12432317  1.0
  Al  Al3  1  0.75012383  0.74984550  0.37432317  1.0
  Al  Al3  1  0.75012383  0.74984550  0.62432317  1.0
  Al  Al3  1  0.75012383  0.74984550  0.87432317  1.0
  Al  Al3  1  0.50012383  0.99984550  0.99932317  1.0
  Al  Al3  1  0.50012383  0.99984550  0.24932317  1.0
  Al  Al3  1  0.50012383  0.99984550  0.49932317  1.0
  Al  Al3  1  0.50012383  0.99984550  0.74932317  1.0
  Al  Al3  1  0.83345717  0.99984550  0.16598983  1.0
  Al  Al3  1  0.83345717  0.99984550  0.41598983  1.0
  Al  Al3  1  0.83345717  0.99984550  0.66598983  1.0
  Al  Al3  1  0.83345717  0.99984550  0.91598983  1.0
  Al  Al4  1  0.20847342  0.12484325  0.97848496  1.0
  Al  Al4  1  0.20847342  0.12484325  0.22848496  1.0
  Al  Al4  1  0.20847342  0.12484325  0.47848496  1.0
  Al  Al4  1  0.20847342  0.12484325  0.72848496  1.0
  Al  Al4  1  0.54180675  0.12484325  0.14515163  1.0
  Al  Al4  1  0.54180675  0.12484325  0.39515163  1.0
  Al  Al4  1  0.54180675  0.12484325  0.64515163  1.0
  Al  Al4  1  0.54180675  0.12484325  0.89515163  1.0
  Al  Al4  1  0.29180675  0.37484325  0.02015163  1.0
  Al  Al4  1  0.29180675  0.37484325  0.27015163  1.0
  Al  Al4  1  0.29180675  0.37484325  0.52015163  1.0
  Al  Al4  1  0.29180675  0.37484325  0.77015163  1.0
  Al  Al4  1  0.87514008  0.12484325  0.06181829  1.0
  Al  Al4  1  0.87514008  0.12484325  0.31181829  1.0
  Al  Al4  1  0.87514008  0.12484325  0.56181829  1.0
  Al  Al4  1  0.87514008  0.12484325  0.81181829  1.0
  Al  Al4  1  0.62514008  0.37484325  0.18681829  1.0
  Al  Al4  1  0.62514008  0.37484325  0.43681829  1.0
  Al  Al4  1  0.62514008  0.37484325  0.68681829  1.0
  Al  Al4  1  0.62514008  0.37484325  0.93681829  1.0
  Al  Al4  1  0.37514008  0.62484325  0.06181829  1.0
  Al  Al4  1  0.37514008  0.62484325  0.31181829  1.0
  Al  Al4  1  0.37514008  0.62484325  0.56181829  1.0
  Al  Al4  1  0.37514008  0.62484325  0.81181829  1.0
  Al  Al4  1  0.95847342  0.37484325  0.10348496  1.0
  Al  Al4  1  0.95847342  0.37484325  0.35348496  1.0
  Al  Al4  1  0.95847342  0.37484325  0.60348496  1.0
  Al  Al4  1  0.95847342  0.37484325  0.85348496  1.0
  Al  Al4  1  0.70847342  0.62484325  0.97848496  1.0
  Al  Al4  1  0.70847342  0.62484325  0.22848496  1.0
  Al  Al4  1  0.70847342  0.62484325  0.47848496  1.0
  Al  Al4  1  0.70847342  0.62484325  0.72848496  1.0
  Al  Al4  1  0.45847342  0.87484325  0.10348496  1.0
  Al  Al4  1  0.45847342  0.87484325  0.35348496  1.0
  Al  Al4  1  0.45847342  0.87484325  0.60348496  1.0
  Al  Al4  1  0.45847342  0.87484325  0.85348496  1.0
  Al  Al4  1  0.04180675  0.62484325  0.14515163  1.0
  Al  Al4  1  0.04180675  0.62484325  0.39515163  1.0
  Al  Al4  1  0.04180675  0.62484325  0.64515163  1.0
  Al  Al4  1  0.04180675  0.62484325  0.89515163  1.0
  Al  Al4  1  0.79180675  0.87484325  0.02015163  1.0
  Al  Al4  1  0.79180675  0.87484325  0.27015163  1.0
  Al  Al4  1  0.79180675  0.87484325  0.52015163  1.0
  Al  Al4  1  0.79180675  0.87484325  0.77015163  1.0
  Al  Al4  1  0.12514008  0.87484325  0.18681829  1.0
  Al  Al4  1  0.12514008  0.87484325  0.43681829  1.0
  Al  Al4  1  0.12514008  0.87484325  0.68681829  1.0
  Al  Al4  1  0.12514008  0.87484325  0.93681829  1.0
  H  H1  1  0.03837733  0.11422400  0.10188492  1.0
  H  H1  1  0.03837733  0.11422400  0.35188492  1.0
  H  H1  1  0.03837733  0.11422400  0.60188492  1.0
  H  H1  1  0.03837733  0.11422400  0.85188492  1.0
  H  H1  1  0.37171067  0.11422400  0.26855158  1.0
  H  H1  1  0.37171067  0.11422400  0.51855158  1.0
  H  H1  1  0.37171067  0.11422400  0.76855158  1.0
  H  H1  1  0.37171067  0.11422400  0.01855158  1.0
  H  H1  1  0.12171067  0.36422400  0.14355158  1.0
  H  H1  1  0.12171067  0.36422400  0.39355158  1.0
  H  H1  1  0.12171067  0.36422400  0.64355158  1.0
  H  H1  1  0.12171067  0.36422400  0.89355158  1.0
  H  H1  1  0.70504400  0.11422400  0.18521825  1.0
  H  H1  1  0.70504400  0.11422400  0.43521825  1.0
  H  H1  1  0.70504400  0.11422400  0.68521825  1.0
  H  H1  1  0.70504400  0.11422400  0.93521825  1.0
  H  H1  1  0.45504400  0.36422400  0.31021825  1.0
  H  H1  1  0.45504400  0.36422400  0.56021825  1.0
  H  H1  1  0.45504400  0.36422400  0.81021825  1.0
  H  H1  1  0.45504400  0.36422400  0.06021825  1.0
  H  H1  1  0.20504400  0.61422400  0.18521825  1.0
  H  H1  1  0.20504400  0.61422400  0.43521825  1.0
  H  H1  1  0.20504400  0.61422400  0.68521825  1.0
  H  H1  1  0.20504400  0.61422400  0.93521825  1.0
  H  H1  1  0.78837733  0.36422400  0.22688492  1.0
  H  H1  1  0.78837733  0.36422400  0.47688492  1.0
  H  H1  1  0.78837733  0.36422400  0.72688492  1.0
  H  H1  1  0.78837733  0.36422400  0.97688492  1.0
  H  H1  1  0.53837733  0.61422400  0.10188492  1.0
  H  H1  1  0.53837733  0.61422400  0.35188492  1.0
  H  H1  1  0.53837733  0.61422400  0.60188492  1.0
  H  H1  1  0.53837733  0.61422400  0.85188492  1.0
  H  H1  1  0.28837733  0.86422400  0.22688492  1.0
  H  H1  1  0.28837733  0.86422400  0.47688492  1.0
  H  H1  1  0.28837733  0.86422400  0.72688492  1.0
  H  H1  1  0.28837733  0.86422400  0.97688492  1.0
  H  H1  1  0.87171067  0.61422400  0.26855158  1.0
  H  H1  1  0.87171067  0.61422400  0.51855158  1.0
  H  H1  1  0.87171067  0.61422400  0.76855158  1.0
  H  H1  1  0.87171067  0.61422400  0.01855158  1.0
  H  H1  1  0.62171067  0.86422400  0.14355158  1.0
  H  H1  1  0.62171067  0.86422400  0.39355158  1.0
  H  H1  1  0.62171067  0.86422400  0.64355158  1.0
  H  H1  1  0.62171067  0.86422400  0.89355158  1.0
  H  H1  1  0.95504400  0.86422400  0.31021825  1.0
  H  H1  1  0.95504400  0.86422400  0.56021825  1.0
  H  H1  1  0.95504400  0.86422400  0.81021825  1.0
  H  H1  1  0.95504400  0.86422400  0.06021825  1.0
  H  H2  1  0.04525008  0.13553025  0.93844804  1.0
  H  H2  1  0.04525008  0.13553025  0.18844804  1.0
  H  H2  1  0.04525008  0.13553025  0.43844804  1.0
  H  H2  1  0.04525008  0.13553025  0.68844804  1.0
  H  H2  1  0.37858342  0.13553025  0.10511471  1.0
  H  H2  1  0.37858342  0.13553025  0.35511471  1.0
  H  H2  1  0.37858342  0.13553025  0.60511471  1.0
  H  H2  1  0.37858342  0.13553025  0.85511471  1.0
  H  H2  1  0.12858342  0.38553025  0.98011471  1.0
  H  H2  1  0.12858342  0.38553025  0.23011471  1.0
  H  H2  1  0.12858342  0.38553025  0.48011471  1.0
  H  H2  1  0.12858342  0.38553025  0.73011471  1.0
  H  H2  1  0.71191675  0.13553025  0.02178138  1.0
  H  H2  1  0.71191675  0.13553025  0.27178138  1.0
  H  H2  1  0.71191675  0.13553025  0.52178138  1.0
  H  H2  1  0.71191675  0.13553025  0.77178138  1.0
  H  H2  1  0.46191675  0.38553025  0.14678138  1.0
  H  H2  1  0.46191675  0.38553025  0.39678138  1.0
  H  H2  1  0.46191675  0.38553025  0.64678138  1.0
  H  H2  1  0.46191675  0.38553025  0.89678138  1.0
  H  H2  1  0.21191675  0.63553025  0.02178138  1.0
  H  H2  1  0.21191675  0.63553025  0.27178138  1.0
  H  H2  1  0.21191675  0.63553025  0.52178138  1.0
  H  H2  1  0.21191675  0.63553025  0.77178138  1.0
  H  H2  1  0.79525008  0.38553025  0.06344804  1.0
  H  H2  1  0.79525008  0.38553025  0.31344804  1.0
  H  H2  1  0.79525008  0.38553025  0.56344804  1.0
  H  H2  1  0.79525008  0.38553025  0.81344804  1.0
  H  H2  1  0.54525008  0.63553025  0.93844804  1.0
  H  H2  1  0.54525008  0.63553025  0.18844804  1.0
  H  H2  1  0.54525008  0.63553025  0.43844804  1.0
  H  H2  1  0.54525008  0.63553025  0.68844804  1.0
  H  H2  1  0.29525008  0.88553025  0.06344804  1.0
  H  H2  1  0.29525008  0.88553025  0.31344804  1.0
  H  H2  1  0.29525008  0.88553025  0.56344804  1.0
  H  H2  1  0.29525008  0.88553025  0.81344804  1.0
  H  H2  1  0.87858342  0.63553025  0.10511471  1.0
  H  H2  1  0.87858342  0.63553025  0.35511471  1.0
  H  H2  1  0.87858342  0.63553025  0.60511471  1.0
  H  H2  1  0.87858342  0.63553025  0.85511471  1.0
  H  H2  1  0.62858342  0.88553025  0.98011471  1.0
  H  H2  1  0.62858342  0.88553025  0.23011471  1.0
  H  H2  1  0.62858342  0.88553025  0.48011471  1.0
  H  H2  1  0.62858342  0.88553025  0.73011471  1.0
  H  H2  1  0.96191675  0.88553025  0.14678138  1.0
  H  H2  1  0.96191675  0.88553025  0.39678138  1.0
  H  H2  1  0.96191675  0.88553025  0.64678138  1.0
  H  H2  1  0.96191675  0.88553025  0.89678138  1.0
  H  H3  1  0.91948650  0.08610650  0.12357100  1.0
  H  H3  1  0.91948650  0.08610650  0.37357100  1.0
  H  H3  1  0.91948650  0.08610650  0.62357100  1.0
  H  H3  1  0.91948650  0.08610650  0.87357100  1.0
  H  H3  1  0.25281983  0.08610650  0.29023767  1.0
  H  H3  1  0.25281983  0.08610650  0.54023767  1.0
  H  H3  1  0.25281983  0.08610650  0.79023767  1.0
  H  H3  1  0.25281983  0.08610650  0.04023767  1.0
  H  H3  1  0.00281983  0.33610650  0.16523767  1.0
  H  H3  1  0.00281983  0.33610650  0.41523767  1.0
  H  H3  1  0.00281983  0.33610650  0.66523767  1.0
  H  H3  1  0.00281983  0.33610650  0.91523767  1.0
  H  H3  1  0.58615317  0.08610650  0.20690433  1.0
  H  H3  1  0.58615317  0.08610650  0.45690433  1.0
  H  H3  1  0.58615317  0.08610650  0.70690433  1.0
  H  H3  1  0.58615317  0.08610650  0.95690433  1.0
  H  H3  1  0.33615317  0.33610650  0.33190433  1.0
  H  H3  1  0.33615317  0.33610650  0.58190433  1.0
  H  H3  1  0.33615317  0.33610650  0.83190433  1.0
  H  H3  1  0.33615317  0.33610650  0.08190433  1.0
  H  H3  1  0.08615317  0.58610650  0.20690433  1.0
  H  H3  1  0.08615317  0.58610650  0.45690433  1.0
  H  H3  1  0.08615317  0.58610650  0.70690433  1.0
  H  H3  1  0.08615317  0.58610650  0.95690433  1.0
  H  H3  1  0.66948650  0.33610650  0.24857100  1.0
  H  H3  1  0.66948650  0.33610650  0.49857100  1.0
  H  H3  1  0.66948650  0.33610650  0.74857100  1.0
  H  H3  1  0.66948650  0.33610650  0.99857100  1.0
  H  H3  1  0.41948650  0.58610650  0.12357100  1.0
  H  H3  1  0.41948650  0.58610650  0.37357100  1.0
  H  H3  1  0.41948650  0.58610650  0.62357100  1.0
  H  H3  1  0.41948650  0.58610650  0.87357100  1.0
  H  H3  1  0.16948650  0.83610650  0.24857100  1.0
  H  H3  1  0.16948650  0.83610650  0.49857100  1.0
  H  H3  1  0.16948650  0.83610650  0.74857100  1.0
  H  H3  1  0.16948650  0.83610650  0.99857100  1.0
  H  H3  1  0.75281983  0.58610650  0.29023767  1.0
  H  H3  1  0.75281983  0.58610650  0.54023767  1.0
  H  H3  1  0.75281983  0.58610650  0.79023767  1.0
  H  H3  1  0.75281983  0.58610650  0.04023767  1.0
  H  H3  1  0.50281983  0.83610650  0.16523767  1.0
  H  H3  1  0.50281983  0.83610650  0.41523767  1.0
  H  H3  1  0.50281983  0.83610650  0.66523767  1.0
  H  H3  1  0.50281983  0.83610650  0.91523767  1.0
  H  H3  1  0.83615317  0.83610650  0.33190433  1.0
  H  H3  1  0.83615317  0.83610650  0.58190433  1.0
  H  H3  1  0.83615317  0.83610650  0.83190433  1.0
  H  H3  1  0.83615317  0.83610650  0.08190433  1.0
  H  H4  1  0.19114483  0.03403450  0.97560492  1.0
  H  H4  1  0.19114483  0.03403450  0.22560492  1.0
  H  H4  1  0.19114483  0.03403450  0.47560492  1.0
  H  H4  1  0.19114483  0.03403450  0.72560492  1.0
  H  H4  1  0.52447817  0.03403450  0.14227158  1.0
  H  H4  1  0.52447817  0.03403450  0.39227158  1.0
  H  H4  1  0.52447817  0.03403450  0.64227158  1.0
  H  H4  1  0.52447817  0.03403450  0.89227158  1.0
  H  H4  1  0.27447817  0.28403450  0.01727158  1.0
  H  H4  1  0.27447817  0.28403450  0.26727158  1.0
  H  H4  1  0.27447817  0.28403450  0.51727158  1.0
  H  H4  1  0.27447817  0.28403450  0.76727158  1.0
  H  H4  1  0.85781150  0.03403450  0.05893825  1.0
  H  H4  1  0.85781150  0.03403450  0.30893825  1.0
  H  H4  1  0.85781150  0.03403450  0.55893825  1.0
  H  H4  1  0.85781150  0.03403450  0.80893825  1.0
  H  H4  1  0.60781150  0.28403450  0.18393825  1.0
  H  H4  1  0.60781150  0.28403450  0.43393825  1.0
  H  H4  1  0.60781150  0.28403450  0.68393825  1.0
  H  H4  1  0.60781150  0.28403450  0.93393825  1.0
  H  H4  1  0.35781150  0.53403450  0.05893825  1.0
  H  H4  1  0.35781150  0.53403450  0.30893825  1.0
  H  H4  1  0.35781150  0.53403450  0.55893825  1.0
  H  H4  1  0.35781150  0.53403450  0.80893825  1.0
  H  H4  1  0.94114483  0.28403450  0.10060492  1.0
  H  H4  1  0.94114483  0.28403450  0.35060492  1.0
  H  H4  1  0.94114483  0.28403450  0.60060492  1.0
  H  H4  1  0.94114483  0.28403450  0.85060492  1.0
  H  H4  1  0.69114483  0.53403450  0.97560492  1.0
  H  H4  1  0.69114483  0.53403450  0.22560492  1.0
  H  H4  1  0.69114483  0.53403450  0.47560492  1.0
  H  H4  1  0.69114483  0.53403450  0.72560492  1.0
  H  H4  1  0.44114483  0.78403450  0.10060492  1.0
  H  H4  1  0.44114483  0.78403450  0.35060492  1.0
  H  H4  1  0.44114483  0.78403450  0.60060492  1.0
  H  H4  1  0.44114483  0.78403450  0.85060492  1.0
  H  H4  1  0.02447817  0.53403450  0.14227158  1.0
  H  H4  1  0.02447817  0.53403450  0.39227158  1.0
  H  H4  1  0.02447817  0.53403450  0.64227158  1.0
  H  H4  1  0.02447817  0.53403450  0.89227158  1.0
  H  H4  1  0.77447817  0.78403450  0.01727158  1.0
  H  H4  1  0.77447817  0.78403450  0.26727158  1.0
  H  H4  1  0.77447817  0.78403450  0.51727158  1.0
  H  H4  1  0.77447817  0.78403450  0.76727158  1.0
  H  H4  1  0.10781150  0.78403450  0.18393825  1.0
  H  H4  1  0.10781150  0.78403450  0.43393825  1.0
  H  H4  1  0.10781150  0.78403450  0.68393825  1.0
  H  H4  1  0.10781150  0.78403450  0.93393825  1.0
  H  H5  1  0.20681350  0.08084750  0.08715600  1.0
  H  H5  1  0.20681350  0.08084750  0.33715600  1.0
  H  H5  1  0.20681350  0.08084750  0.58715600  1.0
  H  H5  1  0.20681350  0.08084750  0.83715600  1.0
  H  H5  1  0.54014683  0.08084750  0.25382267  1.0
  H  H5  1  0.54014683  0.08084750  0.50382267  1.0
  H  H5  1  0.54014683  0.08084750  0.75382267  1.0
  H  H5  1  0.54014683  0.08084750  0.00382267  1.0
  H  H5  1  0.29014683  0.33084750  0.12882267  1.0
  H  H5  1  0.29014683  0.33084750  0.37882267  1.0
  H  H5  1  0.29014683  0.33084750  0.62882267  1.0
  H  H5  1  0.29014683  0.33084750  0.87882267  1.0
  H  H5  1  0.87348017  0.08084750  0.17048933  1.0
  H  H5  1  0.87348017  0.08084750  0.42048933  1.0
  H  H5  1  0.87348017  0.08084750  0.67048933  1.0
  H  H5  1  0.87348017  0.08084750  0.92048933  1.0
  H  H5  1  0.62348017  0.33084750  0.29548933  1.0
  H  H5  1  0.62348017  0.33084750  0.54548933  1.0
  H  H5  1  0.62348017  0.33084750  0.79548933  1.0
  H  H5  1  0.62348017  0.33084750  0.04548933  1.0
  H  H5  1  0.37348017  0.58084750  0.17048933  1.0
  H  H5  1  0.37348017  0.58084750  0.42048933  1.0
  H  H5  1  0.37348017  0.58084750  0.67048933  1.0
  H  H5  1  0.37348017  0.58084750  0.92048933  1.0
  H  H5  1  0.95681350  0.33084750  0.21215600  1.0
  H  H5  1  0.95681350  0.33084750  0.46215600  1.0
  H  H5  1  0.95681350  0.33084750  0.71215600  1.0
  H  H5  1  0.95681350  0.33084750  0.96215600  1.0
  H  H5  1  0.70681350  0.58084750  0.08715600  1.0
  H  H5  1  0.70681350  0.58084750  0.33715600  1.0
  H  H5  1  0.70681350  0.58084750  0.58715600  1.0
  H  H5  1  0.70681350  0.58084750  0.83715600  1.0
  H  H5  1  0.45681350  0.83084750  0.21215600  1.0
  H  H5  1  0.45681350  0.83084750  0.46215600  1.0
  H  H5  1  0.45681350  0.83084750  0.71215600  1.0
  H  H5  1  0.45681350  0.83084750  0.96215600  1.0
  H  H5  1  0.04014683  0.58084750  0.25382267  1.0
  H  H5  1  0.04014683  0.58084750  0.50382267  1.0
  H  H5  1  0.04014683  0.58084750  0.75382267  1.0
  H  H5  1  0.04014683  0.58084750  0.00382267  1.0
  H  H5  1  0.79014683  0.83084750  0.12882267  1.0
  H  H5  1  0.79014683  0.83084750  0.37882267  1.0
  H  H5  1  0.79014683  0.83084750  0.62882267  1.0
  H  H5  1  0.79014683  0.83084750  0.87882267  1.0
  H  H5  1  0.12348017  0.83084750  0.29548933  1.0
  H  H5  1  0.12348017  0.83084750  0.54548933  1.0
  H  H5  1  0.12348017  0.83084750  0.79548933  1.0
  H  H5  1  0.12348017  0.83084750  0.04548933  1.0
  H  H6  1  0.97271717  0.24529050  0.90309383  1.0
  H  H6  1  0.97271717  0.24529050  0.15309383  1.0
  H  H6  1  0.97271717  0.24529050  0.40309383  1.0
  H  H6  1  0.97271717  0.24529050  0.65309383  1.0
  H  H6  1  0.30605050  0.24529050  0.06976050  1.0
  H  H6  1  0.30605050  0.24529050  0.31976050  1.0
  H  H6  1  0.30605050  0.24529050  0.56976050  1.0
  H  H6  1  0.30605050  0.24529050  0.81976050  1.0
  H  H6  1  0.05605050  0.49529050  0.94476050  1.0
  H  H6  1  0.05605050  0.49529050  0.19476050  1.0
  H  H6  1  0.05605050  0.49529050  0.44476050  1.0
  H  H6  1  0.05605050  0.49529050  0.69476050  1.0
  H  H6  1  0.63938383  0.24529050  0.98642717  1.0
  H  H6  1  0.63938383  0.24529050  0.23642717  1.0
  H  H6  1  0.63938383  0.24529050  0.48642717  1.0
  H  H6  1  0.63938383  0.24529050  0.73642717  1.0
  H  H6  1  0.38938383  0.49529050  0.11142717  1.0
  H  H6  1  0.38938383  0.49529050  0.36142717  1.0
  H  H6  1  0.38938383  0.49529050  0.61142717  1.0
  H  H6  1  0.38938383  0.49529050  0.86142717  1.0
  H  H6  1  0.13938383  0.74529050  0.98642717  1.0
  H  H6  1  0.13938383  0.74529050  0.23642717  1.0
  H  H6  1  0.13938383  0.74529050  0.48642717  1.0
  H  H6  1  0.13938383  0.74529050  0.73642717  1.0
  H  H6  1  0.72271717  0.49529050  0.02809383  1.0
  H  H6  1  0.72271717  0.49529050  0.27809383  1.0
  H  H6  1  0.72271717  0.49529050  0.52809383  1.0
  H  H6  1  0.72271717  0.49529050  0.77809383  1.0
  H  H6  1  0.47271717  0.74529050  0.90309383  1.0
  H  H6  1  0.47271717  0.74529050  0.15309383  1.0
  H  H6  1  0.47271717  0.74529050  0.40309383  1.0
  H  H6  1  0.47271717  0.74529050  0.65309383  1.0
  H  H6  1  0.22271717  0.99529050  0.02809383  1.0
  H  H6  1  0.22271717  0.99529050  0.27809383  1.0
  H  H6  1  0.22271717  0.99529050  0.52809383  1.0
  H  H6  1  0.22271717  0.99529050  0.77809383  1.0
  H  H6  1  0.80605050  0.74529050  0.06976050  1.0
  H  H6  1  0.80605050  0.74529050  0.31976050  1.0
  H  H6  1  0.80605050  0.74529050  0.56976050  1.0
  H  H6  1  0.80605050  0.74529050  0.81976050  1.0
  H  H6  1  0.55605050  0.99529050  0.94476050  1.0
  H  H6  1  0.55605050  0.99529050  0.19476050  1.0
  H  H6  1  0.55605050  0.99529050  0.44476050  1.0
  H  H6  1  0.55605050  0.99529050  0.69476050  1.0
  H  H6  1  0.88938383  0.99529050  0.11142717  1.0
  H  H6  1  0.88938383  0.99529050  0.36142717  1.0
  H  H6  1  0.88938383  0.99529050  0.61142717  1.0
  H  H6  1  0.88938383  0.99529050  0.86142717  1.0
  H  H7  1  0.11088000  0.00443600  0.13724575  1.0
  H  H7  1  0.11088000  0.00443600  0.38724575  1.0
  H  H7  1  0.11088000  0.00443600  0.63724575  1.0
  H  H7  1  0.11088000  0.00443600  0.88724575  1.0
  H  H7  1  0.44421333  0.00443600  0.30391242  1.0
  H  H7  1  0.44421333  0.00443600  0.55391242  1.0
  H  H7  1  0.44421333  0.00443600  0.80391242  1.0
  H  H7  1  0.44421333  0.00443600  0.05391242  1.0
  H  H7  1  0.19421333  0.25443600  0.17891242  1.0
  H  H7  1  0.19421333  0.25443600  0.42891242  1.0
  H  H7  1  0.19421333  0.25443600  0.67891242  1.0
  H  H7  1  0.19421333  0.25443600  0.92891242  1.0
  H  H7  1  0.77754667  0.00443600  0.22057908  1.0
  H  H7  1  0.77754667  0.00443600  0.47057908  1.0
  H  H7  1  0.77754667  0.00443600  0.72057908  1.0
  H  H7  1  0.77754667  0.00443600  0.97057908  1.0
  H  H7  1  0.52754667  0.25443600  0.34557908  1.0
  H  H7  1  0.52754667  0.25443600  0.59557908  1.0
  H  H7  1  0.52754667  0.25443600  0.84557908  1.0
  H  H7  1  0.52754667  0.25443600  0.09557908  1.0
  H  H7  1  0.27754667  0.50443600  0.22057908  1.0
  H  H7  1  0.27754667  0.50443600  0.47057908  1.0
  H  H7  1  0.27754667  0.50443600  0.72057908  1.0
  H  H7  1  0.27754667  0.50443600  0.97057908  1.0
  H  H7  1  0.86088000  0.25443600  0.26224575  1.0
  H  H7  1  0.86088000  0.25443600  0.51224575  1.0
  H  H7  1  0.86088000  0.25443600  0.76224575  1.0
  H  H7  1  0.86088000  0.25443600  0.01224575  1.0
  H  H7  1  0.61088000  0.50443600  0.13724575  1.0
  H  H7  1  0.61088000  0.50443600  0.38724575  1.0
  H  H7  1  0.61088000  0.50443600  0.63724575  1.0
  H  H7  1  0.61088000  0.50443600  0.88724575  1.0
  H  H7  1  0.36088000  0.75443600  0.26224575  1.0
  H  H7  1  0.36088000  0.75443600  0.51224575  1.0
  H  H7  1  0.36088000  0.75443600  0.76224575  1.0
  H  H7  1  0.36088000  0.75443600  0.01224575  1.0
  H  H7  1  0.94421333  0.50443600  0.30391242  1.0
  H  H7  1  0.94421333  0.50443600  0.55391242  1.0
  H  H7  1  0.94421333  0.50443600  0.80391242  1.0
  H  H7  1  0.94421333  0.50443600  0.05391242  1.0
  H  H7  1  0.69421333  0.75443600  0.17891242  1.0
  H  H7  1  0.69421333  0.75443600  0.42891242  1.0
  H  H7  1  0.69421333  0.75443600  0.67891242  1.0
  H  H7  1  0.69421333  0.75443600  0.92891242  1.0
  H  H7  1  0.02754667  0.75443600  0.34557908  1.0
  H  H7  1  0.02754667  0.75443600  0.59557908  1.0
  H  H7  1  0.02754667  0.75443600  0.84557908  1.0
  H  H7  1  0.02754667  0.75443600  0.09557908  1.0
  H  H8  1  0.87679017  0.16884050  0.95313483  1.0
  H  H8  1  0.87679017  0.16884050  0.20313483  1.0
  H  H8  1  0.87679017  0.16884050  0.45313483  1.0
  H  H8  1  0.87679017  0.16884050  0.70313483  1.0
  H  H8  1  0.21012350  0.16884050  0.11980150  1.0
  H  H8  1  0.21012350  0.16884050  0.36980150  1.0
  H  H8  1  0.21012350  0.16884050  0.61980150  1.0
  H  H8  1  0.21012350  0.16884050  0.86980150  1.0
  H  H8  1  0.96012350  0.41884050  0.99480150  1.0
  H  H8  1  0.96012350  0.41884050  0.24480150  1.0
  H  H8  1  0.96012350  0.41884050  0.49480150  1.0
  H  H8  1  0.96012350  0.41884050  0.74480150  1.0
  H  H8  1  0.54345683  0.16884050  0.03646817  1.0
  H  H8  1  0.54345683  0.16884050  0.28646817  1.0
  H  H8  1  0.54345683  0.16884050  0.53646817  1.0
  H  H8  1  0.54345683  0.16884050  0.78646817  1.0
  H  H8  1  0.29345683  0.41884050  0.16146817  1.0
  H  H8  1  0.29345683  0.41884050  0.41146817  1.0
  H  H8  1  0.29345683  0.41884050  0.66146817  1.0
  H  H8  1  0.29345683  0.41884050  0.91146817  1.0
  H  H8  1  0.04345683  0.66884050  0.03646817  1.0
  H  H8  1  0.04345683  0.66884050  0.28646817  1.0
  H  H8  1  0.04345683  0.66884050  0.53646817  1.0
  H  H8  1  0.04345683  0.66884050  0.78646817  1.0
  H  H8  1  0.62679017  0.41884050  0.07813483  1.0
  H  H8  1  0.62679017  0.41884050  0.32813483  1.0
  H  H8  1  0.62679017  0.41884050  0.57813483  1.0
  H  H8  1  0.62679017  0.41884050  0.82813483  1.0
  H  H8  1  0.37679017  0.66884050  0.95313483  1.0
  H  H8  1  0.37679017  0.66884050  0.20313483  1.0
  H  H8  1  0.37679017  0.66884050  0.45313483  1.0
  H  H8  1  0.37679017  0.66884050  0.70313483  1.0
  H  H8  1  0.12679017  0.91884050  0.07813483  1.0
  H  H8  1  0.12679017  0.91884050  0.32813483  1.0
  H  H8  1  0.12679017  0.91884050  0.57813483  1.0
  H  H8  1  0.12679017  0.91884050  0.82813483  1.0
  H  H8  1  0.71012350  0.66884050  0.11980150  1.0
  H  H8  1  0.71012350  0.66884050  0.36980150  1.0
  H  H8  1  0.71012350  0.66884050  0.61980150  1.0
  H  H8  1  0.71012350  0.66884050  0.86980150  1.0
  H  H8  1  0.46012350  0.91884050  0.99480150  1.0
  H  H8  1  0.46012350  0.91884050  0.24480150  1.0
  H  H8  1  0.46012350  0.91884050  0.49480150  1.0
  H  H8  1  0.46012350  0.91884050  0.74480150  1.0
  H  H8  1  0.79345683  0.91884050  0.16146817  1.0
  H  H8  1  0.79345683  0.91884050  0.41146817  1.0
  H  H8  1  0.79345683  0.91884050  0.66146817  1.0
  H  H8  1  0.79345683  0.91884050  0.91146817  1.0
  H  H9  1  0.89247892  0.21566875  0.06468221  1.0
  H  H9  1  0.89247892  0.21566875  0.31468221  1.0
  H  H9  1  0.89247892  0.21566875  0.56468221  1.0
  H  H9  1  0.89247892  0.21566875  0.81468221  1.0
  H  H9  1  0.22581225  0.21566875  0.23134888  1.0
  H  H9  1  0.22581225  0.21566875  0.48134888  1.0
  H  H9  1  0.22581225  0.21566875  0.73134888  1.0
  H  H9  1  0.22581225  0.21566875  0.98134888  1.0
  H  H9  1  0.97581225  0.46566875  0.10634888  1.0
  H  H9  1  0.97581225  0.46566875  0.35634888  1.0
  H  H9  1  0.97581225  0.46566875  0.60634888  1.0
  H  H9  1  0.97581225  0.46566875  0.85634888  1.0
  H  H9  1  0.55914558  0.21566875  0.14801554  1.0
  H  H9  1  0.55914558  0.21566875  0.39801554  1.0
  H  H9  1  0.55914558  0.21566875  0.64801554  1.0
  H  H9  1  0.55914558  0.21566875  0.89801554  1.0
  H  H9  1  0.30914558  0.46566875  0.27301554  1.0
  H  H9  1  0.30914558  0.46566875  0.52301554  1.0
  H  H9  1  0.30914558  0.46566875  0.77301554  1.0
  H  H9  1  0.30914558  0.46566875  0.02301554  1.0
  H  H9  1  0.05914558  0.71566875  0.14801554  1.0
  H  H9  1  0.05914558  0.71566875  0.39801554  1.0
  H  H9  1  0.05914558  0.71566875  0.64801554  1.0
  H  H9  1  0.05914558  0.71566875  0.89801554  1.0
  H  H9  1  0.64247892  0.46566875  0.18968221  1.0
  H  H9  1  0.64247892  0.46566875  0.43968221  1.0
  H  H9  1  0.64247892  0.46566875  0.68968221  1.0
  H  H9  1  0.64247892  0.46566875  0.93968221  1.0
  H  H9  1  0.39247892  0.71566875  0.06468221  1.0
  H  H9  1  0.39247892  0.71566875  0.31468221  1.0
  H  H9  1  0.39247892  0.71566875  0.56468221  1.0
  H  H9  1  0.39247892  0.71566875  0.81468221  1.0
  H  H9  1  0.14247892  0.96566875  0.18968221  1.0
  H  H9  1  0.14247892  0.96566875  0.43968221  1.0
  H  H9  1  0.14247892  0.96566875  0.68968221  1.0
  H  H9  1  0.14247892  0.96566875  0.93968221  1.0
  H  H9  1  0.72581225  0.71566875  0.23134888  1.0
  H  H9  1  0.72581225  0.71566875  0.48134888  1.0
  H  H9  1  0.72581225  0.71566875  0.73134888  1.0
  H  H9  1  0.72581225  0.71566875  0.98134888  1.0
  H  H9  1  0.47581225  0.96566875  0.10634888  1.0
  H  H9  1  0.47581225  0.96566875  0.35634888  1.0
  H  H9  1  0.47581225  0.96566875  0.60634888  1.0
  H  H9  1  0.47581225  0.96566875  0.85634888  1.0
  H  H9  1  0.80914558  0.96566875  0.27301554  1.0
  H  H9  1  0.80914558  0.96566875  0.52301554  1.0
  H  H9  1  0.80914558  0.96566875  0.77301554  1.0
  H  H9  1  0.80914558  0.96566875  0.02301554  1.0
  H  H10  1  0.16413767  0.16361500  0.91675158  1.0
  H  H10  1  0.16413767  0.16361500  0.16675158  1.0
  H  H10  1  0.16413767  0.16361500  0.41675158  1.0
  H  H10  1  0.16413767  0.16361500  0.66675158  1.0
  H  H10  1  0.49747100  0.16361500  0.08341825  1.0
  H  H10  1  0.49747100  0.16361500  0.33341825  1.0
  H  H10  1  0.49747100  0.16361500  0.58341825  1.0
  H  H10  1  0.49747100  0.16361500  0.83341825  1.0
  H  H10  1  0.24747100  0.41361500  0.95841825  1.0
  H  H10  1  0.24747100  0.41361500  0.20841825  1.0
  H  H10  1  0.24747100  0.41361500  0.45841825  1.0
  H  H10  1  0.24747100  0.41361500  0.70841825  1.0
  H  H10  1  0.83080433  0.16361500  0.00008492  1.0
  H  H10  1  0.83080433  0.16361500  0.25008492  1.0
  H  H10  1  0.83080433  0.16361500  0.50008492  1.0
  H  H10  1  0.83080433  0.16361500  0.75008492  1.0
  H  H10  1  0.58080433  0.41361500  0.12508492  1.0
  H  H10  1  0.58080433  0.41361500  0.37508492  1.0
  H  H10  1  0.58080433  0.41361500  0.62508492  1.0
  H  H10  1  0.58080433  0.41361500  0.87508492  1.0
  H  H10  1  0.33080433  0.66361500  0.00008492  1.0
  H  H10  1  0.33080433  0.66361500  0.25008492  1.0
  H  H10  1  0.33080433  0.66361500  0.50008492  1.0
  H  H10  1  0.33080433  0.66361500  0.75008492  1.0
  H  H10  1  0.91413767  0.41361500  0.04175158  1.0
  H  H10  1  0.91413767  0.41361500  0.29175158  1.0
  H  H10  1  0.91413767  0.41361500  0.54175158  1.0
  H  H10  1  0.91413767  0.41361500  0.79175158  1.0
  H  H10  1  0.66413767  0.66361500  0.91675158  1.0
  H  H10  1  0.66413767  0.66361500  0.16675158  1.0
  H  H10  1  0.66413767  0.66361500  0.41675158  1.0
  H  H10  1  0.66413767  0.66361500  0.66675158  1.0
  H  H10  1  0.41413767  0.91361500  0.04175158  1.0
  H  H10  1  0.41413767  0.91361500  0.29175158  1.0
  H  H10  1  0.41413767  0.91361500  0.54175158  1.0
  H  H10  1  0.41413767  0.91361500  0.79175158  1.0
  H  H10  1  0.99747100  0.66361500  0.08341825  1.0
  H  H10  1  0.99747100  0.66361500  0.33341825  1.0
  H  H10  1  0.99747100  0.66361500  0.58341825  1.0
  H  H10  1  0.99747100  0.66361500  0.83341825  1.0
  H  H10  1  0.74747100  0.91361500  0.95841825  1.0
  H  H10  1  0.74747100  0.91361500  0.20841825  1.0
  H  H10  1  0.74747100  0.91361500  0.45841825  1.0
  H  H10  1  0.74747100  0.91361500  0.70841825  1.0
  H  H10  1  0.08080433  0.91361500  0.12508492  1.0
  H  H10  1  0.08080433  0.91361500  0.37508492  1.0
  H  H10  1  0.08080433  0.91361500  0.62508492  1.0
  H  H10  1  0.08080433  0.91361500  0.87508492  1.0
  C  C1  1  0.11108342  0.08269625  0.07215721  1.0
  C  C1  1  0.11108342  0.08269625  0.32215721  1.0
  C  C1  1  0.11108342  0.08269625  0.57215721  1.0
  C  C1  1  0.11108342  0.08269625  0.82215721  1.0
  C  C1  1  0.44441675  0.08269625  0.23882388  1.0
  C  C1  1  0.44441675  0.08269625  0.48882388  1.0
  C  C1  1  0.44441675  0.08269625  0.73882388  1.0
  C  C1  1  0.44441675  0.08269625  0.98882388  1.0
  C  C1  1  0.19441675  0.33269625  0.11382388  1.0
  C  C1  1  0.19441675  0.33269625  0.36382388  1.0
  C  C1  1  0.19441675  0.33269625  0.61382388  1.0
  C  C1  1  0.19441675  0.33269625  0.86382388  1.0
  C  C1  1  0.77775008  0.08269625  0.15549054  1.0
  C  C1  1  0.77775008  0.08269625  0.40549054  1.0
  C  C1  1  0.77775008  0.08269625  0.65549054  1.0
  C  C1  1  0.77775008  0.08269625  0.90549054  1.0
  C  C1  1  0.52775008  0.33269625  0.28049054  1.0
  C  C1  1  0.52775008  0.33269625  0.53049054  1.0
  C  C1  1  0.52775008  0.33269625  0.78049054  1.0
  C  C1  1  0.52775008  0.33269625  0.03049054  1.0
  C  C1  1  0.27775008  0.58269625  0.15549054  1.0
  C  C1  1  0.27775008  0.58269625  0.40549054  1.0
  C  C1  1  0.27775008  0.58269625  0.65549054  1.0
  C  C1  1  0.27775008  0.58269625  0.90549054  1.0
  C  C1  1  0.86108342  0.33269625  0.19715721  1.0
  C  C1  1  0.86108342  0.33269625  0.44715721  1.0
  C  C1  1  0.86108342  0.33269625  0.69715721  1.0
  C  C1  1  0.86108342  0.33269625  0.94715721  1.0
  C  C1  1  0.61108342  0.58269625  0.07215721  1.0
  C  C1  1  0.61108342  0.58269625  0.32215721  1.0
  C  C1  1  0.61108342  0.58269625  0.57215721  1.0
  C  C1  1  0.61108342  0.58269625  0.82215721  1.0
  C  C1  1  0.36108342  0.83269625  0.19715721  1.0
  C  C1  1  0.36108342  0.83269625  0.44715721  1.0
  C  C1  1  0.36108342  0.83269625  0.69715721  1.0
  C  C1  1  0.36108342  0.83269625  0.94715721  1.0
  C  C1  1  0.94441675  0.58269625  0.23882388  1.0
  C  C1  1  0.94441675  0.58269625  0.48882388  1.0
  C  C1  1  0.94441675  0.58269625  0.73882388  1.0
  C  C1  1  0.94441675  0.58269625  0.98882388  1.0
  C  C1  1  0.69441675  0.83269625  0.11382388  1.0
  C  C1  1  0.69441675  0.83269625  0.36382388  1.0
  C  C1  1  0.69441675  0.83269625  0.61382388  1.0
  C  C1  1  0.69441675  0.83269625  0.86382388  1.0
  C  C1  1  0.02775008  0.83269625  0.28049054  1.0
  C  C1  1  0.02775008  0.83269625  0.53049054  1.0
  C  C1  1  0.02775008  0.83269625  0.78049054  1.0
  C  C1  1  0.02775008  0.83269625  0.03049054  1.0
  C  C2  1  0.97251942  0.16702225  0.96817521  1.0
  C  C2  1  0.97251942  0.16702225  0.21817521  1.0
  C  C2  1  0.97251942  0.16702225  0.46817521  1.0
  C  C2  1  0.97251942  0.16702225  0.71817521  1.0
  C  C2  1  0.30585275  0.16702225  0.13484188  1.0
  C  C2  1  0.30585275  0.16702225  0.38484187  1.0
  C  C2  1  0.30585275  0.16702225  0.63484187  1.0
  C  C2  1  0.30585275  0.16702225  0.88484187  1.0
  C  C2  1  0.05585275  0.41702225  0.00984188  1.0
  C  C2  1  0.05585275  0.41702225  0.25984188  1.0
  C  C2  1  0.05585275  0.41702225  0.50984188  1.0
  C  C2  1  0.05585275  0.41702225  0.75984188  1.0
  C  C2  1  0.63918608  0.16702225  0.05150854  1.0
  C  C2  1  0.63918608  0.16702225  0.30150854  1.0
  C  C2  1  0.63918608  0.16702225  0.55150854  1.0
  C  C2  1  0.63918608  0.16702225  0.80150854  1.0
  C  C2  1  0.38918608  0.41702225  0.17650854  1.0
  C  C2  1  0.38918608  0.41702225  0.42650854  1.0
  C  C2  1  0.38918608  0.41702225  0.67650854  1.0
  C  C2  1  0.38918608  0.41702225  0.92650854  1.0
  C  C2  1  0.13918608  0.66702225  0.05150854  1.0
  C  C2  1  0.13918608  0.66702225  0.30150854  1.0
  C  C2  1  0.13918608  0.66702225  0.55150854  1.0
  C  C2  1  0.13918608  0.66702225  0.80150854  1.0
  C  C2  1  0.72251942  0.41702225  0.09317521  1.0
  C  C2  1  0.72251942  0.41702225  0.34317521  1.0
  C  C2  1  0.72251942  0.41702225  0.59317521  1.0
  C  C2  1  0.72251942  0.41702225  0.84317521  1.0
  C  C2  1  0.47251942  0.66702225  0.96817521  1.0
  C  C2  1  0.47251942  0.66702225  0.21817521  1.0
  C  C2  1  0.47251942  0.66702225  0.46817521  1.0
  C  C2  1  0.47251942  0.66702225  0.71817521  1.0
  C  C2  1  0.22251942  0.91702225  0.09317521  1.0
  C  C2  1  0.22251942  0.91702225  0.34317521  1.0
  C  C2  1  0.22251942  0.91702225  0.59317521  1.0
  C  C2  1  0.22251942  0.91702225  0.84317521  1.0
  C  C2  1  0.80585275  0.66702225  0.13484188  1.0
  C  C2  1  0.80585275  0.66702225  0.38484188  1.0
  C  C2  1  0.80585275  0.66702225  0.63484188  1.0
  C  C2  1  0.80585275  0.66702225  0.88484188  1.0
  C  C2  1  0.55585275  0.91702225  0.00984188  1.0
  C  C2  1  0.55585275  0.91702225  0.25984188  1.0
  C  C2  1  0.55585275  0.91702225  0.50984188  1.0
  C  C2  1  0.55585275  0.91702225  0.75984187  1.0
  C  C2  1  0.88918608  0.91702225  0.17650854  1.0
  C  C2  1  0.88918608  0.91702225  0.42650854  1.0
  C  C2  1  0.88918608  0.91702225  0.67650854  1.0
  C  C2  1  0.88918608  0.91702225  0.92650854  1.0
  C  C3  1  0.11837667  0.10495700  0.97845783  1.0
  C  C3  1  0.11837667  0.10495700  0.22845783  1.0
  C  C3  1  0.11837667  0.10495700  0.47845783  1.0
  C  C3  1  0.11837667  0.10495700  0.72845783  1.0
  C  C3  1  0.45171000  0.10495700  0.14512450  1.0
  C  C3  1  0.45171000  0.10495700  0.39512450  1.0
  C  C3  1  0.45171000  0.10495700  0.64512450  1.0
  C  C3  1  0.45171000  0.10495700  0.89512450  1.0
  C  C3  1  0.20171000  0.35495700  0.02012450  1.0
  C  C3  1  0.20171000  0.35495700  0.27012450  1.0
  C  C3  1  0.20171000  0.35495700  0.52012450  1.0
  C  C3  1  0.20171000  0.35495700  0.77012450  1.0
  C  C3  1  0.78504333  0.10495700  0.06179117  1.0
  C  C3  1  0.78504333  0.10495700  0.31179117  1.0
  C  C3  1  0.78504333  0.10495700  0.56179117  1.0
  C  C3  1  0.78504333  0.10495700  0.81179117  1.0
  C  C3  1  0.53504333  0.35495700  0.18679117  1.0
  C  C3  1  0.53504333  0.35495700  0.43679117  1.0
  C  C3  1  0.53504333  0.35495700  0.68679117  1.0
  C  C3  1  0.53504333  0.35495700  0.93679117  1.0
  C  C3  1  0.28504333  0.60495700  0.06179117  1.0
  C  C3  1  0.28504333  0.60495700  0.31179117  1.0
  C  C3  1  0.28504333  0.60495700  0.56179117  1.0
  C  C3  1  0.28504333  0.60495700  0.81179117  1.0
  C  C3  1  0.86837667  0.35495700  0.10345783  1.0
  C  C3  1  0.86837667  0.35495700  0.35345783  1.0
  C  C3  1  0.86837667  0.35495700  0.60345783  1.0
  C  C3  1  0.86837667  0.35495700  0.85345783  1.0
  C  C3  1  0.61837667  0.60495700  0.97845783  1.0
  C  C3  1  0.61837667  0.60495700  0.22845783  1.0
  C  C3  1  0.61837667  0.60495700  0.47845783  1.0
  C  C3  1  0.61837667  0.60495700  0.72845783  1.0
  C  C3  1  0.36837667  0.85495700  0.10345783  1.0
  C  C3  1  0.36837667  0.85495700  0.35345783  1.0
  C  C3  1  0.36837667  0.85495700  0.60345783  1.0
  C  C3  1  0.36837667  0.85495700  0.85345783  1.0
  C  C3  1  0.95171000  0.60495700  0.14512450  1.0
  C  C3  1  0.95171000  0.60495700  0.39512450  1.0
  C  C3  1  0.95171000  0.60495700  0.64512450  1.0
  C  C3  1  0.95171000  0.60495700  0.89512450  1.0
  C  C3  1  0.70171000  0.85495700  0.02012450  1.0
  C  C3  1  0.70171000  0.85495700  0.27012450  1.0
  C  C3  1  0.70171000  0.85495700  0.52012450  1.0
  C  C3  1  0.70171000  0.85495700  0.77012450  1.0
  C  C3  1  0.03504333  0.85495700  0.18679117  1.0
  C  C3  1  0.03504333  0.85495700  0.43679117  1.0
  C  C3  1  0.03504333  0.85495700  0.68679117  1.0
  C  C3  1  0.03504333  0.85495700  0.93679117  1.0
  C  C4  1  0.96524258  0.14475075  0.06187354  1.0
  C  C4  1  0.96524258  0.14475075  0.31187354  1.0
  C  C4  1  0.96524258  0.14475075  0.56187354  1.0
  C  C4  1  0.96524258  0.14475075  0.81187354  1.0
  C  C4  1  0.29857592  0.14475075  0.22854021  1.0
  C  C4  1  0.29857592  0.14475075  0.47854021  1.0
  C  C4  1  0.29857592  0.14475075  0.72854021  1.0
  C  C4  1  0.29857592  0.14475075  0.97854021  1.0
  C  C4  1  0.04857592  0.39475075  0.10354021  1.0
  C  C4  1  0.04857592  0.39475075  0.35354021  1.0
  C  C4  1  0.04857592  0.39475075  0.60354021  1.0
  C  C4  1  0.04857592  0.39475075  0.85354021  1.0
  C  C4  1  0.63190925  0.14475075  0.14520688  1.0
  C  C4  1  0.63190925  0.14475075  0.39520688  1.0
  C  C4  1  0.63190925  0.14475075  0.64520688  1.0
  C  C4  1  0.63190925  0.14475075  0.89520688  1.0
  C  C4  1  0.38190925  0.39475075  0.27020688  1.0
  C  C4  1  0.38190925  0.39475075  0.52020688  1.0
  C  C4  1  0.38190925  0.39475075  0.77020688  1.0
  C  C4  1  0.38190925  0.39475075  0.02020688  1.0
  C  C4  1  0.13190925  0.64475075  0.14520688  1.0
  C  C4  1  0.13190925  0.64475075  0.39520688  1.0
  C  C4  1  0.13190925  0.64475075  0.64520688  1.0
  C  C4  1  0.13190925  0.64475075  0.89520688  1.0
  C  C4  1  0.71524258  0.39475075  0.18687354  1.0
  C  C4  1  0.71524258  0.39475075  0.43687354  1.0
  C  C4  1  0.71524258  0.39475075  0.68687354  1.0
  C  C4  1  0.71524258  0.39475075  0.93687354  1.0
  C  C4  1  0.46524258  0.64475075  0.06187354  1.0
  C  C4  1  0.46524258  0.64475075  0.31187354  1.0
  C  C4  1  0.46524258  0.64475075  0.56187354  1.0
  C  C4  1  0.46524258  0.64475075  0.81187354  1.0
  C  C4  1  0.21524258  0.89475075  0.18687354  1.0
  C  C4  1  0.21524258  0.89475075  0.43687354  1.0
  C  C4  1  0.21524258  0.89475075  0.68687354  1.0
  C  C4  1  0.21524258  0.89475075  0.93687354  1.0
  C  C4  1  0.79857592  0.64475075  0.22854021  1.0
  C  C4  1  0.79857592  0.64475075  0.47854021  1.0
  C  C4  1  0.79857592  0.64475075  0.72854021  1.0
  C  C4  1  0.79857592  0.64475075  0.97854021  1.0
  C  C4  1  0.54857592  0.89475075  0.10354021  1.0
  C  C4  1  0.54857592  0.89475075  0.35354021  1.0
  C  C4  1  0.54857592  0.89475075  0.60354021  1.0
  C  C4  1  0.54857592  0.89475075  0.85354021  1.0
  C  C4  1  0.88190925  0.89475075  0.27020688  1.0
  C  C4  1  0.88190925  0.89475075  0.52020688  1.0
  C  C4  1  0.88190925  0.89475075  0.77020688  1.0
  C  C4  1  0.88190925  0.89475075  0.02020688  1.0
  C  C5  1  0.07626350  0.10685550  0.04567950  1.0
  C  C5  1  0.07626350  0.10685550  0.29567950  1.0
  C  C5  1  0.07626350  0.10685550  0.54567950  1.0
  C  C5  1  0.07626350  0.10685550  0.79567950  1.0
  C  C5  1  0.40959683  0.10685550  0.21234617  1.0
  C  C5  1  0.40959683  0.10685550  0.46234617  1.0
  C  C5  1  0.40959683  0.10685550  0.71234617  1.0
  C  C5  1  0.40959683  0.10685550  0.96234617  1.0
  C  C5  1  0.15959683  0.35685550  0.08734617  1.0
  C  C5  1  0.15959683  0.35685550  0.33734617  1.0
  C  C5  1  0.15959683  0.35685550  0.58734617  1.0
  C  C5  1  0.15959683  0.35685550  0.83734617  1.0
  C  C5  1  0.74293017  0.10685550  0.12901283  1.0
  C  C5  1  0.74293017  0.10685550  0.37901283  1.0
  C  C5  1  0.74293017  0.10685550  0.62901283  1.0
  C  C5  1  0.74293017  0.10685550  0.87901283  1.0
  C  C5  1  0.49293017  0.35685550  0.25401283  1.0
  C  C5  1  0.49293017  0.35685550  0.50401283  1.0
  C  C5  1  0.49293017  0.35685550  0.75401283  1.0
  C  C5  1  0.49293017  0.35685550  0.00401283  1.0
  C  C5  1  0.24293017  0.60685550  0.12901283  1.0
  C  C5  1  0.24293017  0.60685550  0.37901283  1.0
  C  C5  1  0.24293017  0.60685550  0.62901283  1.0
  C  C5  1  0.24293017  0.60685550  0.87901283  1.0
  C  C5  1  0.82626350  0.35685550  0.17067950  1.0
  C  C5  1  0.82626350  0.35685550  0.42067950  1.0
  C  C5  1  0.82626350  0.35685550  0.67067950  1.0
  C  C5  1  0.82626350  0.35685550  0.92067950  1.0
  C  C5  1  0.57626350  0.60685550  0.04567950  1.0
  C  C5  1  0.57626350  0.60685550  0.29567950  1.0
  C  C5  1  0.57626350  0.60685550  0.54567950  1.0
  C  C5  1  0.57626350  0.60685550  0.79567950  1.0
  C  C5  1  0.32626350  0.85685550  0.17067950  1.0
  C  C5  1  0.32626350  0.85685550  0.42067950  1.0
  C  C5  1  0.32626350  0.85685550  0.67067950  1.0
  C  C5  1  0.32626350  0.85685550  0.92067950  1.0
  C  C5  1  0.90959683  0.60685550  0.21234617  1.0
  C  C5  1  0.90959683  0.60685550  0.46234617  1.0
  C  C5  1  0.90959683  0.60685550  0.71234617  1.0
  C  C5  1  0.90959683  0.60685550  0.96234617  1.0
  C  C5  1  0.65959683  0.85685550  0.08734617  1.0
  C  C5  1  0.65959683  0.85685550  0.33734617  1.0
  C  C5  1  0.65959683  0.85685550  0.58734617  1.0
  C  C5  1  0.65959683  0.85685550  0.83734617  1.0
  C  C5  1  0.99293017  0.85685550  0.25401283  1.0
  C  C5  1  0.99293017  0.85685550  0.50401283  1.0
  C  C5  1  0.99293017  0.85685550  0.75401283  1.0
  C  C5  1  0.99293017  0.85685550  0.00401283  1.0
  C  C6  1  0.00735867  0.14288700  0.99465158  1.0
  C  C6  1  0.00735867  0.14288700  0.24465158  1.0
  C  C6  1  0.00735867  0.14288700  0.49465158  1.0
  C  C6  1  0.00735867  0.14288700  0.74465158  1.0
  C  C6  1  0.34069200  0.14288700  0.16131825  1.0
  C  C6  1  0.34069200  0.14288700  0.41131825  1.0
  C  C6  1  0.34069200  0.14288700  0.66131825  1.0
  C  C6  1  0.34069200  0.14288700  0.91131825  1.0
  C  C6  1  0.09069200  0.39288700  0.03631825  1.0
  C  C6  1  0.09069200  0.39288700  0.28631825  1.0
  C  C6  1  0.09069200  0.39288700  0.53631825  1.0
  C  C6  1  0.09069200  0.39288700  0.78631825  1.0
  C  C6  1  0.67402533  0.14288700  0.07798492  1.0
  C  C6  1  0.67402533  0.14288700  0.32798492  1.0
  C  C6  1  0.67402533  0.14288700  0.57798492  1.0
  C  C6  1  0.67402533  0.14288700  0.82798492  1.0
  C  C6  1  0.42402533  0.39288700  0.20298492  1.0
  C  C6  1  0.42402533  0.39288700  0.45298492  1.0
  C  C6  1  0.42402533  0.39288700  0.70298492  1.0
  C  C6  1  0.42402533  0.39288700  0.95298492  1.0
  C  C6  1  0.17402533  0.64288700  0.07798492  1.0
  C  C6  1  0.17402533  0.64288700  0.32798492  1.0
  C  C6  1  0.17402533  0.64288700  0.57798492  1.0
  C  C6  1  0.17402533  0.64288700  0.82798492  1.0
  C  C6  1  0.75735867  0.39288700  0.11965158  1.0
  C  C6  1  0.75735867  0.39288700  0.36965158  1.0
  C  C6  1  0.75735867  0.39288700  0.61965158  1.0
  C  C6  1  0.75735867  0.39288700  0.86965158  1.0
  C  C6  1  0.50735867  0.64288700  0.99465158  1.0
  C  C6  1  0.50735867  0.64288700  0.24465158  1.0
  C  C6  1  0.50735867  0.64288700  0.49465158  1.0
  C  C6  1  0.50735867  0.64288700  0.74465158  1.0
  C  C6  1  0.25735867  0.89288700  0.11965158  1.0
  C  C6  1  0.25735867  0.89288700  0.36965158  1.0
  C  C6  1  0.25735867  0.89288700  0.61965158  1.0
  C  C6  1  0.25735867  0.89288700  0.86965158  1.0
  C  C6  1  0.84069200  0.64288700  0.16131825  1.0
  C  C6  1  0.84069200  0.64288700  0.41131825  1.0
  C  C6  1  0.84069200  0.64288700  0.66131825  1.0
  C  C6  1  0.84069200  0.64288700  0.91131825  1.0
  C  C6  1  0.59069200  0.89288700  0.03631825  1.0
  C  C6  1  0.59069200  0.89288700  0.28631825  1.0
  C  C6  1  0.59069200  0.89288700  0.53631825  1.0
  C  C6  1  0.59069200  0.89288700  0.78631825  1.0
  C  C6  1  0.92402533  0.89288700  0.20298492  1.0
  C  C6  1  0.92402533  0.89288700  0.45298492  1.0
  C  C6  1  0.92402533  0.89288700  0.70298492  1.0
  C  C6  1  0.92402533  0.89288700  0.95298492  1.0
  C  C7  1  0.07819667  0.11283500  0.99963858  1.0
  C  C7  1  0.07819667  0.11283500  0.24963858  1.0
  C  C7  1  0.07819667  0.11283500  0.49963858  1.0
  C  C7  1  0.07819667  0.11283500  0.74963858  1.0
  C  C7  1  0.41153000  0.11283500  0.16630525  1.0
  C  C7  1  0.41153000  0.11283500  0.41630525  1.0
  C  C7  1  0.41153000  0.11283500  0.66630525  1.0
  C  C7  1  0.41153000  0.11283500  0.91630525  1.0
  C  C7  1  0.16153000  0.36283500  0.04130525  1.0
  C  C7  1  0.16153000  0.36283500  0.29130525  1.0
  C  C7  1  0.16153000  0.36283500  0.54130525  1.0
  C  C7  1  0.16153000  0.36283500  0.79130525  1.0
  C  C7  1  0.74486333  0.11283500  0.08297192  1.0
  C  C7  1  0.74486333  0.11283500  0.33297192  1.0
  C  C7  1  0.74486333  0.11283500  0.58297192  1.0
  C  C7  1  0.74486333  0.11283500  0.83297192  1.0
  C  C7  1  0.49486333  0.36283500  0.20797192  1.0
  C  C7  1  0.49486333  0.36283500  0.45797192  1.0
  C  C7  1  0.49486333  0.36283500  0.70797192  1.0
  C  C7  1  0.49486333  0.36283500  0.95797192  1.0
  C  C7  1  0.24486333  0.61283500  0.08297192  1.0
  C  C7  1  0.24486333  0.61283500  0.33297192  1.0
  C  C7  1  0.24486333  0.61283500  0.58297192  1.0
  C  C7  1  0.24486333  0.61283500  0.83297192  1.0
  C  C7  1  0.82819667  0.36283500  0.12463858  1.0
  C  C7  1  0.82819667  0.36283500  0.37463858  1.0
  C  C7  1  0.82819667  0.36283500  0.62463858  1.0
  C  C7  1  0.82819667  0.36283500  0.87463858  1.0
  C  C7  1  0.57819667  0.61283500  0.99963858  1.0
  C  C7  1  0.57819667  0.61283500  0.24963858  1.0
  C  C7  1  0.57819667  0.61283500  0.49963858  1.0
  C  C7  1  0.57819667  0.61283500  0.74963858  1.0
  C  C7  1  0.32819667  0.86283500  0.12463858  1.0
  C  C7  1  0.32819667  0.86283500  0.37463858  1.0
  C  C7  1  0.32819667  0.86283500  0.62463858  1.0
  C  C7  1  0.32819667  0.86283500  0.87463858  1.0
  C  C7  1  0.91153000  0.61283500  0.16630525  1.0
  C  C7  1  0.91153000  0.61283500  0.41630525  1.0
  C  C7  1  0.91153000  0.61283500  0.66630525  1.0
  C  C7  1  0.91153000  0.61283500  0.91630525  1.0
  C  C7  1  0.66153000  0.86283500  0.04130525  1.0
  C  C7  1  0.66153000  0.86283500  0.29130525  1.0
  C  C7  1  0.66153000  0.86283500  0.54130525  1.0
  C  C7  1  0.66153000  0.86283500  0.79130525  1.0
  C  C7  1  0.99486333  0.86283500  0.20797192  1.0
  C  C7  1  0.99486333  0.86283500  0.45797192  1.0
  C  C7  1  0.99486333  0.86283500  0.70797192  1.0
  C  C7  1  0.99486333  0.86283500  0.95797192  1.0
  C  C8  1  0.00542575  0.13690425  0.04069187  1.0
  C  C8  1  0.00542575  0.13690425  0.29069188  1.0
  C  C8  1  0.00542575  0.13690425  0.54069188  1.0
  C  C8  1  0.00542575  0.13690425  0.79069188  1.0
  C  C8  1  0.33875908  0.13690425  0.20735854  1.0
  C  C8  1  0.33875908  0.13690425  0.45735854  1.0
  C  C8  1  0.33875908  0.13690425  0.70735854  1.0
  C  C8  1  0.33875908  0.13690425  0.95735854  1.0
  C  C8  1  0.08875908  0.38690425  0.08235854  1.0
  C  C8  1  0.08875908  0.38690425  0.33235854  1.0
  C  C8  1  0.08875908  0.38690425  0.58235854  1.0
  C  C8  1  0.08875908  0.38690425  0.83235854  1.0
  C  C8  1  0.67209242  0.13690425  0.12402521  1.0
  C  C8  1  0.67209242  0.13690425  0.37402521  1.0
  C  C8  1  0.67209242  0.13690425  0.62402521  1.0
  C  C8  1  0.67209242  0.13690425  0.87402521  1.0
  C  C8  1  0.42209242  0.38690425  0.24902521  1.0
  C  C8  1  0.42209242  0.38690425  0.49902521  1.0
  C  C8  1  0.42209242  0.38690425  0.74902521  1.0
  C  C8  1  0.42209242  0.38690425  0.99902521  1.0
  C  C8  1  0.17209242  0.63690425  0.12402521  1.0
  C  C8  1  0.17209242  0.63690425  0.37402521  1.0
  C  C8  1  0.17209242  0.63690425  0.62402521  1.0
  C  C8  1  0.17209242  0.63690425  0.87402521  1.0
  C  C8  1  0.75542575  0.38690425  0.16569188  1.0
  C  C8  1  0.75542575  0.38690425  0.41569188  1.0
  C  C8  1  0.75542575  0.38690425  0.66569187  1.0
  C  C8  1  0.75542575  0.38690425  0.91569188  1.0
  C  C8  1  0.50542575  0.63690425  0.04069188  1.0
  C  C8  1  0.50542575  0.63690425  0.29069188  1.0
  C  C8  1  0.50542575  0.63690425  0.54069188  1.0
  C  C8  1  0.50542575  0.63690425  0.79069187  1.0
  C  C8  1  0.25542575  0.88690425  0.16569187  1.0
  C  C8  1  0.25542575  0.88690425  0.41569188  1.0
  C  C8  1  0.25542575  0.88690425  0.66569188  1.0
  C  C8  1  0.25542575  0.88690425  0.91569188  1.0
  C  C8  1  0.83875908  0.63690425  0.20735854  1.0
  C  C8  1  0.83875908  0.63690425  0.45735854  1.0
  C  C8  1  0.83875908  0.63690425  0.70735854  1.0
  C  C8  1  0.83875908  0.63690425  0.95735854  1.0
  C  C8  1  0.58875908  0.88690425  0.08235854  1.0
  C  C8  1  0.58875908  0.88690425  0.33235854  1.0
  C  C8  1  0.58875908  0.88690425  0.58235854  1.0
  C  C8  1  0.58875908  0.88690425  0.83235854  1.0
  C  C8  1  0.92209242  0.88690425  0.24902521  1.0
  C  C8  1  0.92209242  0.88690425  0.49902521  1.0
  C  C8  1  0.92209242  0.88690425  0.74902521  1.0
  C  C8  1  0.92209242  0.88690425  0.99902521  1.0
  C  C9  1  0.04005142  0.11941125  0.06617496  1.0
  C  C9  1  0.04005142  0.11941125  0.31617496  1.0
  C  C9  1  0.04005142  0.11941125  0.56617496  1.0
  C  C9  1  0.04005142  0.11941125  0.81617496  1.0
  C  C9  1  0.37338475  0.11941125  0.23284163  1.0
  C  C9  1  0.37338475  0.11941125  0.48284163  1.0
  C  C9  1  0.37338475  0.11941125  0.73284163  1.0
  C  C9  1  0.37338475  0.11941125  0.98284163  1.0
  C  C9  1  0.12338475  0.36941125  0.10784163  1.0
  C  C9  1  0.12338475  0.36941125  0.35784163  1.0
  C  C9  1  0.12338475  0.36941125  0.60784163  1.0
  C  C9  1  0.12338475  0.36941125  0.85784163  1.0
  C  C9  1  0.70671808  0.11941125  0.14950829  1.0
  C  C9  1  0.70671808  0.11941125  0.39950829  1.0
  C  C9  1  0.70671808  0.11941125  0.64950829  1.0
  C  C9  1  0.70671808  0.11941125  0.89950829  1.0
  C  C9  1  0.45671808  0.36941125  0.27450829  1.0
  C  C9  1  0.45671808  0.36941125  0.52450829  1.0
  C  C9  1  0.45671808  0.36941125  0.77450829  1.0
  C  C9  1  0.45671808  0.36941125  0.02450829  1.0
  C  C9  1  0.20671808  0.61941125  0.14950829  1.0
  C  C9  1  0.20671808  0.61941125  0.39950829  1.0
  C  C9  1  0.20671808  0.61941125  0.64950829  1.0
  C  C9  1  0.20671808  0.61941125  0.89950829  1.0
  C  C9  1  0.79005142  0.36941125  0.19117496  1.0
  C  C9  1  0.79005142  0.36941125  0.44117496  1.0
  C  C9  1  0.79005142  0.36941125  0.69117496  1.0
  C  C9  1  0.79005142  0.36941125  0.94117496  1.0
  C  C9  1  0.54005142  0.61941125  0.06617496  1.0
  C  C9  1  0.54005142  0.61941125  0.31617496  1.0
  C  C9  1  0.54005142  0.61941125  0.56617496  1.0
  C  C9  1  0.54005142  0.61941125  0.81617496  1.0
  C  C9  1  0.29005142  0.86941125  0.19117496  1.0
  C  C9  1  0.29005142  0.86941125  0.44117496  1.0
  C  C9  1  0.29005142  0.86941125  0.69117496  1.0
  C  C9  1  0.29005142  0.86941125  0.94117496  1.0
  C  C9  1  0.87338475  0.61941125  0.23284163  1.0
  C  C9  1  0.87338475  0.61941125  0.48284163  1.0
  C  C9  1  0.87338475  0.61941125  0.73284163  1.0
  C  C9  1  0.87338475  0.61941125  0.98284163  1.0
  C  C9  1  0.62338475  0.86941125  0.10784163  1.0
  C  C9  1  0.62338475  0.86941125  0.35784163  1.0
  C  C9  1  0.62338475  0.86941125  0.60784163  1.0
  C  C9  1  0.62338475  0.86941125  0.85784163  1.0
  C  C9  1  0.95671808  0.86941125  0.27450829  1.0
  C  C9  1  0.95671808  0.86941125  0.52450829  1.0
  C  C9  1  0.95671808  0.86941125  0.77450829  1.0
  C  C9  1  0.95671808  0.86941125  0.02450829  1.0
  C  C10  1  0.04357358  0.13033875  0.97415679  1.0
  C  C10  1  0.04357358  0.13033875  0.22415679  1.0
  C  C10  1  0.04357358  0.13033875  0.47415679  1.0
  C  C10  1  0.04357358  0.13033875  0.72415679  1.0
  C  C10  1  0.37690692  0.13033875  0.14082346  1.0
  C  C10  1  0.37690692  0.13033875  0.39082346  1.0
  C  C10  1  0.37690692  0.13033875  0.64082346  1.0
  C  C10  1  0.37690692  0.13033875  0.89082346  1.0
  C  C10  1  0.12690692  0.38033875  0.01582346  1.0
  C  C10  1  0.12690692  0.38033875  0.26582346  1.0
  C  C10  1  0.12690692  0.38033875  0.51582346  1.0
  C  C10  1  0.12690692  0.38033875  0.76582346  1.0
  C  C10  1  0.71024025  0.13033875  0.05749013  1.0
  C  C10  1  0.71024025  0.13033875  0.30749013  1.0
  C  C10  1  0.71024025  0.13033875  0.55749013  1.0
  C  C10  1  0.71024025  0.13033875  0.80749012  1.0
  C  C10  1  0.46024025  0.38033875  0.18249013  1.0
  C  C10  1  0.46024025  0.38033875  0.43249013  1.0
  C  C10  1  0.46024025  0.38033875  0.68249013  1.0
  C  C10  1  0.46024025  0.38033875  0.93249013  1.0
  C  C10  1  0.21024025  0.63033875  0.05749013  1.0
  C  C10  1  0.21024025  0.63033875  0.30749013  1.0
  C  C10  1  0.21024025  0.63033875  0.55749013  1.0
  C  C10  1  0.21024025  0.63033875  0.80749013  1.0
  C  C10  1  0.79357358  0.38033875  0.09915679  1.0
  C  C10  1  0.79357358  0.38033875  0.34915679  1.0
  C  C10  1  0.79357358  0.38033875  0.59915679  1.0
  C  C10  1  0.79357358  0.38033875  0.84915679  1.0
  C  C10  1  0.54357358  0.63033875  0.97415679  1.0
  C  C10  1  0.54357358  0.63033875  0.22415679  1.0
  C  C10  1  0.54357358  0.63033875  0.47415679  1.0
  C  C10  1  0.54357358  0.63033875  0.72415679  1.0
  C  C10  1  0.29357358  0.88033875  0.09915679  1.0
  C  C10  1  0.29357358  0.88033875  0.34915679  1.0
  C  C10  1  0.29357358  0.88033875  0.59915679  1.0
  C  C10  1  0.29357358  0.88033875  0.84915679  1.0
  C  C10  1  0.87690692  0.63033875  0.14082346  1.0
  C  C10  1  0.87690692  0.63033875  0.39082346  1.0
  C  C10  1  0.87690692  0.63033875  0.64082346  1.0
  C  C10  1  0.87690692  0.63033875  0.89082346  1.0
  C  C10  1  0.62690692  0.88033875  0.01582346  1.0
  C  C10  1  0.62690692  0.88033875  0.26582346  1.0
  C  C10  1  0.62690692  0.88033875  0.51582346  1.0
  C  C10  1  0.62690692  0.88033875  0.76582346  1.0
  C  C10  1  0.96024025  0.88033875  0.18249013  1.0
  C  C10  1  0.96024025  0.88033875  0.43249013  1.0
  C  C10  1  0.96024025  0.88033875  0.68249013  1.0
  C  C10  1  0.96024025  0.88033875  0.93249013  1.0
  O  O1  1  0.18619200  0.13948100  0.91879800  1.0
  O  O1  1  0.18619200  0.13948100  0.16879800  1.0
  O  O1  1  0.18619200  0.13948100  0.41879800  1.0
  O  O1  1  0.18619200  0.13948100  0.66879800  1.0
  O  O1  1  0.51952533  0.13948100  0.08546467  1.0
  O  O1  1  0.51952533  0.13948100  0.33546467  1.0
  O  O1  1  0.51952533  0.13948100  0.58546467  1.0
  O  O1  1  0.51952533  0.13948100  0.83546467  1.0
  O  O1  1  0.26952533  0.38948100  0.96046467  1.0
  O  O1  1  0.26952533  0.38948100  0.21046467  1.0
  O  O1  1  0.26952533  0.38948100  0.46046467  1.0
  O  O1  1  0.26952533  0.38948100  0.71046467  1.0
  O  O1  1  0.85285867  0.13948100  0.00213133  1.0
  O  O1  1  0.85285867  0.13948100  0.25213133  1.0
  O  O1  1  0.85285867  0.13948100  0.50213133  1.0
  O  O1  1  0.85285867  0.13948100  0.75213133  1.0
  O  O1  1  0.60285867  0.38948100  0.12713133  1.0
  O  O1  1  0.60285867  0.38948100  0.37713133  1.0
  O  O1  1  0.60285867  0.38948100  0.62713133  1.0
  O  O1  1  0.60285867  0.38948100  0.87713133  1.0
  O  O1  1  0.35285867  0.63948100  0.00213133  1.0
  O  O1  1  0.35285867  0.63948100  0.25213133  1.0
  O  O1  1  0.35285867  0.63948100  0.50213133  1.0
  O  O1  1  0.35285867  0.63948100  0.75213133  1.0
  O  O1  1  0.93619200  0.38948100  0.04379800  1.0
  O  O1  1  0.93619200  0.38948100  0.29379800  1.0
  O  O1  1  0.93619200  0.38948100  0.54379800  1.0
  O  O1  1  0.93619200  0.38948100  0.79379800  1.0
  O  O1  1  0.68619200  0.63948100  0.91879800  1.0
  O  O1  1  0.68619200  0.63948100  0.16879800  1.0
  O  O1  1  0.68619200  0.63948100  0.41879800  1.0
  O  O1  1  0.68619200  0.63948100  0.66879800  1.0
  O  O1  1  0.43619200  0.88948100  0.04379800  1.0
  O  O1  1  0.43619200  0.88948100  0.29379800  1.0
  O  O1  1  0.43619200  0.88948100  0.54379800  1.0
  O  O1  1  0.43619200  0.88948100  0.79379800  1.0
  O  O1  1  0.01952533  0.63948100  0.08546467  1.0
  O  O1  1  0.01952533  0.63948100  0.33546467  1.0
  O  O1  1  0.01952533  0.63948100  0.58546467  1.0
  O  O1  1  0.01952533  0.63948100  0.83546467  1.0
  O  O1  1  0.76952533  0.88948100  0.96046467  1.0
  O  O1  1  0.76952533  0.88948100  0.21046467  1.0
  O  O1  1  0.76952533  0.88948100  0.46046467  1.0
  O  O1  1  0.76952533  0.88948100  0.71046467  1.0
  O  O1  1  0.10285867  0.88948100  0.12713133  1.0
  O  O1  1  0.10285867  0.88948100  0.37713133  1.0
  O  O1  1  0.10285867  0.88948100  0.62713133  1.0
  O  O1  1  0.10285867  0.88948100  0.87713133  1.0
  O  O2  1  0.89742150  0.11022650  0.12151200  1.0
  O  O2  1  0.89742150  0.11022650  0.37151200  1.0
  O  O2  1  0.89742150  0.11022650  0.62151200  1.0
  O  O2  1  0.89742150  0.11022650  0.87151200  1.0
  O  O2  1  0.23075483  0.11022650  0.28817867  1.0
  O  O2  1  0.23075483  0.11022650  0.53817867  1.0
  O  O2  1  0.23075483  0.11022650  0.78817867  1.0
  O  O2  1  0.23075483  0.11022650  0.03817867  1.0
  O  O2  1  0.98075483  0.36022650  0.16317867  1.0
  O  O2  1  0.98075483  0.36022650  0.41317867  1.0
  O  O2  1  0.98075483  0.36022650  0.66317867  1.0
  O  O2  1  0.98075483  0.36022650  0.91317867  1.0
  O  O2  1  0.56408817  0.11022650  0.20484533  1.0
  O  O2  1  0.56408817  0.11022650  0.45484533  1.0
  O  O2  1  0.56408817  0.11022650  0.70484533  1.0
  O  O2  1  0.56408817  0.11022650  0.95484533  1.0
  O  O2  1  0.31408817  0.36022650  0.32984533  1.0
  O  O2  1  0.31408817  0.36022650  0.57984533  1.0
  O  O2  1  0.31408817  0.36022650  0.82984533  1.0
  O  O2  1  0.31408817  0.36022650  0.07984533  1.0
  O  O2  1  0.06408817  0.61022650  0.20484533  1.0
  O  O2  1  0.06408817  0.61022650  0.45484533  1.0
  O  O2  1  0.06408817  0.61022650  0.70484533  1.0
  O  O2  1  0.06408817  0.61022650  0.95484533  1.0
  O  O2  1  0.64742150  0.36022650  0.24651200  1.0
  O  O2  1  0.64742150  0.36022650  0.49651200  1.0
  O  O2  1  0.64742150  0.36022650  0.74651200  1.0
  O  O2  1  0.64742150  0.36022650  0.99651200  1.0
  O  O2  1  0.39742150  0.61022650  0.12151200  1.0
  O  O2  1  0.39742150  0.61022650  0.37151200  1.0
  O  O2  1  0.39742150  0.61022650  0.62151200  1.0
  O  O2  1  0.39742150  0.61022650  0.87151200  1.0
  O  O2  1  0.14742150  0.86022650  0.24651200  1.0
  O  O2  1  0.14742150  0.86022650  0.49651200  1.0
  O  O2  1  0.14742150  0.86022650  0.74651200  1.0
  O  O2  1  0.14742150  0.86022650  0.99651200  1.0
  O  O2  1  0.73075483  0.61022650  0.28817867  1.0
  O  O2  1  0.73075483  0.61022650  0.53817867  1.0
  O  O2  1  0.73075483  0.61022650  0.78817867  1.0
  O  O2  1  0.73075483  0.61022650  0.03817867  1.0
  O  O2  1  0.48075483  0.86022650  0.16317867  1.0
  O  O2  1  0.48075483  0.86022650  0.41317867  1.0
  O  O2  1  0.48075483  0.86022650  0.66317867  1.0
  O  O2  1  0.48075483  0.86022650  0.91317867  1.0
  O  O2  1  0.81408817  0.86022650  0.32984533  1.0
  O  O2  1  0.81408817  0.86022650  0.57984533  1.0
  O  O2  1  0.81408817  0.86022650  0.82984533  1.0
  O  O2  1  0.81408817  0.86022650  0.07984533  1.0
  O  O3  1  0.14147200  0.00581500  0.13891525  1.0
  O  O3  1  0.14147200  0.00581500  0.38891525  1.0
  O  O3  1  0.14147200  0.00581500  0.63891525  1.0
  O  O3  1  0.14147200  0.00581500  0.88891525  1.0
  O  O3  1  0.47480533  0.00581500  0.30558192  1.0
  O  O3  1  0.47480533  0.00581500  0.55558192  1.0
  O  O3  1  0.47480533  0.00581500  0.80558192  1.0
  O  O3  1  0.47480533  0.00581500  0.05558192  1.0
  O  O3  1  0.22480533  0.25581500  0.18058192  1.0
  O  O3  1  0.22480533  0.25581500  0.43058192  1.0
  O  O3  1  0.22480533  0.25581500  0.68058192  1.0
  O  O3  1  0.22480533  0.25581500  0.93058192  1.0
  O  O3  1  0.80813867  0.00581500  0.22224858  1.0
  O  O3  1  0.80813867  0.00581500  0.47224858  1.0
  O  O3  1  0.80813867  0.00581500  0.72224858  1.0
  O  O3  1  0.80813867  0.00581500  0.97224858  1.0
  O  O3  1  0.55813867  0.25581500  0.34724858  1.0
  O  O3  1  0.55813867  0.25581500  0.59724858  1.0
  O  O3  1  0.55813867  0.25581500  0.84724858  1.0
  O  O3  1  0.55813867  0.25581500  0.09724858  1.0
  O  O3  1  0.30813867  0.50581500  0.22224858  1.0
  O  O3  1  0.30813867  0.50581500  0.47224858  1.0
  O  O3  1  0.30813867  0.50581500  0.72224858  1.0
  O  O3  1  0.30813867  0.50581500  0.97224858  1.0
  O  O3  1  0.89147200  0.25581500  0.26391525  1.0
  O  O3  1  0.89147200  0.25581500  0.51391525  1.0
  O  O3  1  0.89147200  0.25581500  0.76391525  1.0
  O  O3  1  0.89147200  0.25581500  0.01391525  1.0
  O  O3  1  0.64147200  0.50581500  0.13891525  1.0
  O  O3  1  0.64147200  0.50581500  0.38891525  1.0
  O  O3  1  0.64147200  0.50581500  0.63891525  1.0
  O  O3  1  0.64147200  0.50581500  0.88891525  1.0
  O  O3  1  0.39147200  0.75581500  0.26391525  1.0
  O  O3  1  0.39147200  0.75581500  0.51391525  1.0
  O  O3  1  0.39147200  0.75581500  0.76391525  1.0
  O  O3  1  0.39147200  0.75581500  0.01391525  1.0
  O  O3  1  0.97480533  0.50581500  0.30558192  1.0
  O  O3  1  0.97480533  0.50581500  0.55558192  1.0
  O  O3  1  0.97480533  0.50581500  0.80558192  1.0
  O  O3  1  0.97480533  0.50581500  0.05558192  1.0
  O  O3  1  0.72480533  0.75581500  0.18058192  1.0
  O  O3  1  0.72480533  0.75581500  0.43058192  1.0
  O  O3  1  0.72480533  0.75581500  0.68058192  1.0
  O  O3  1  0.72480533  0.75581500  0.93058192  1.0
  O  O3  1  0.05813867  0.75581500  0.34724858  1.0
  O  O3  1  0.05813867  0.75581500  0.59724858  1.0
  O  O3  1  0.05813867  0.75581500  0.84724858  1.0
  O  O3  1  0.05813867  0.75581500  0.09724858  1.0
  O  O4  1  0.94212533  0.24389600  0.90140292  1.0
  O  O4  1  0.94212533  0.24389600  0.15140292  1.0
  O  O4  1  0.94212533  0.24389600  0.40140292  1.0
  O  O4  1  0.94212533  0.24389600  0.65140292  1.0
  O  O4  1  0.27545867  0.24389600  0.06806958  1.0
  O  O4  1  0.27545867  0.24389600  0.31806958  1.0
  O  O4  1  0.27545867  0.24389600  0.56806958  1.0
  O  O4  1  0.27545867  0.24389600  0.81806958  1.0
  O  O4  1  0.02545867  0.49389600  0.94306958  1.0
  O  O4  1  0.02545867  0.49389600  0.19306958  1.0
  O  O4  1  0.02545867  0.49389600  0.44306958  1.0
  O  O4  1  0.02545867  0.49389600  0.69306958  1.0
  O  O4  1  0.60879200  0.24389600  0.98473625  1.0
  O  O4  1  0.60879200  0.24389600  0.23473625  1.0
  O  O4  1  0.60879200  0.24389600  0.48473625  1.0
  O  O4  1  0.60879200  0.24389600  0.73473625  1.0
  O  O4  1  0.35879200  0.49389600  0.10973625  1.0
  O  O4  1  0.35879200  0.49389600  0.35973625  1.0
  O  O4  1  0.35879200  0.49389600  0.60973625  1.0
  O  O4  1  0.35879200  0.49389600  0.85973625  1.0
  O  O4  1  0.10879200  0.74389600  0.98473625  1.0
  O  O4  1  0.10879200  0.74389600  0.23473625  1.0
  O  O4  1  0.10879200  0.74389600  0.48473625  1.0
  O  O4  1  0.10879200  0.74389600  0.73473625  1.0
  O  O4  1  0.69212533  0.49389600  0.02640292  1.0
  O  O4  1  0.69212533  0.49389600  0.27640292  1.0
  O  O4  1  0.69212533  0.49389600  0.52640292  1.0
  O  O4  1  0.69212533  0.49389600  0.77640292  1.0
  O  O4  1  0.44212533  0.74389600  0.90140292  1.0
  O  O4  1  0.44212533  0.74389600  0.15140292  1.0
  O  O4  1  0.44212533  0.74389600  0.40140292  1.0
  O  O4  1  0.44212533  0.74389600  0.65140292  1.0
  O  O4  1  0.19212533  0.99389600  0.02640292  1.0
  O  O4  1  0.19212533  0.99389600  0.27640292  1.0
  O  O4  1  0.19212533  0.99389600  0.52640292  1.0
  O  O4  1  0.19212533  0.99389600  0.77640292  1.0
  O  O4  1  0.77545867  0.74389600  0.06806958  1.0
  O  O4  1  0.77545867  0.74389600  0.31806958  1.0
  O  O4  1  0.77545867  0.74389600  0.56806958  1.0
  O  O4  1  0.77545867  0.74389600  0.81806958  1.0
  O  O4  1  0.52545867  0.99389600  0.94306958  1.0
  O  O4  1  0.52545867  0.99389600  0.19306958  1.0
  O  O4  1  0.52545867  0.99389600  0.44306958  1.0
  O  O4  1  0.52545867  0.99389600  0.69306958  1.0
  O  O4  1  0.85879200  0.99389600  0.10973625  1.0
  O  O4  1  0.85879200  0.99389600  0.35973625  1.0
  O  O4  1  0.85879200  0.99389600  0.60973625  1.0
  O  O4  1  0.85879200  0.99389600  0.85973625  1.0
  O  O5  1  0.19775217  0.05611650  0.10827558  1.0
  O  O5  1  0.19775217  0.05611650  0.35827558  1.0
  O  O5  1  0.19775217  0.05611650  0.60827558  1.0
  O  O5  1  0.19775217  0.05611650  0.85827558  1.0
  O  O5  1  0.53108550  0.05611650  0.27494225  1.0
  O  O5  1  0.53108550  0.05611650  0.52494225  1.0
  O  O5  1  0.53108550  0.05611650  0.77494225  1.0
  O  O5  1  0.53108550  0.05611650  0.02494225  1.0
  O  O5  1  0.28108550  0.30611650  0.14994225  1.0
  O  O5  1  0.28108550  0.30611650  0.39994225  1.0
  O  O5  1  0.28108550  0.30611650  0.64994225  1.0
  O  O5  1  0.28108550  0.30611650  0.89994225  1.0
  O  O5  1  0.86441883  0.05611650  0.19160892  1.0
  O  O5  1  0.86441883  0.05611650  0.44160892  1.0
  O  O5  1  0.86441883  0.05611650  0.69160892  1.0
  O  O5  1  0.86441883  0.05611650  0.94160892  1.0
  O  O5  1  0.61441883  0.30611650  0.31660892  1.0
  O  O5  1  0.61441883  0.30611650  0.56660892  1.0
  O  O5  1  0.61441883  0.30611650  0.81660892  1.0
  O  O5  1  0.61441883  0.30611650  0.06660892  1.0
  O  O5  1  0.36441883  0.55611650  0.19160892  1.0
  O  O5  1  0.36441883  0.55611650  0.44160892  1.0
  O  O5  1  0.36441883  0.55611650  0.69160892  1.0
  O  O5  1  0.36441883  0.55611650  0.94160892  1.0
  O  O5  1  0.94775217  0.30611650  0.23327558  1.0
  O  O5  1  0.94775217  0.30611650  0.48327558  1.0
  O  O5  1  0.94775217  0.30611650  0.73327558  1.0
  O  O5  1  0.94775217  0.30611650  0.98327558  1.0
  O  O5  1  0.69775217  0.55611650  0.10827558  1.0
  O  O5  1  0.69775217  0.55611650  0.35827558  1.0
  O  O5  1  0.69775217  0.55611650  0.60827558  1.0
  O  O5  1  0.69775217  0.55611650  0.85827558  1.0
  O  O5  1  0.44775217  0.80611650  0.23327558  1.0
  O  O5  1  0.44775217  0.80611650  0.48327558  1.0
  O  O5  1  0.44775217  0.80611650  0.73327558  1.0
  O  O5  1  0.44775217  0.80611650  0.98327558  1.0
  O  O5  1  0.03108550  0.55611650  0.27494225  1.0
  O  O5  1  0.03108550  0.55611650  0.52494225  1.0
  O  O5  1  0.03108550  0.55611650  0.77494225  1.0
  O  O5  1  0.03108550  0.55611650  0.02494225  1.0
  O  O5  1  0.78108550  0.80611650  0.14994225  1.0
  O  O5  1  0.78108550  0.80611650  0.39994225  1.0
  O  O5  1  0.78108550  0.80611650  0.64994225  1.0
  O  O5  1  0.78108550  0.80611650  0.89994225  1.0
  O  O5  1  0.11441883  0.80611650  0.31660892  1.0
  O  O5  1  0.11441883  0.80611650  0.56660892  1.0
  O  O5  1  0.11441883  0.80611650  0.81660892  1.0
  O  O5  1  0.11441883  0.80611650  0.06660892  1.0
  O  O6  1  0.88584017  0.19358350  0.93201833  1.0
  O  O6  1  0.88584017  0.19358350  0.18201833  1.0
  O  O6  1  0.88584017  0.19358350  0.43201833  1.0
  O  O6  1  0.88584017  0.19358350  0.68201833  1.0
  O  O6  1  0.21917350  0.19358350  0.09868500  1.0
  O  O6  1  0.21917350  0.19358350  0.34868500  1.0
  O  O6  1  0.21917350  0.19358350  0.59868500  1.0
  O  O6  1  0.21917350  0.19358350  0.84868500  1.0
  O  O6  1  0.96917350  0.44358350  0.97368500  1.0
  O  O6  1  0.96917350  0.44358350  0.22368500  1.0
  O  O6  1  0.96917350  0.44358350  0.47368500  1.0
  O  O6  1  0.96917350  0.44358350  0.72368500  1.0
  O  O6  1  0.55250683  0.19358350  0.01535167  1.0
  O  O6  1  0.55250683  0.19358350  0.26535167  1.0
  O  O6  1  0.55250683  0.19358350  0.51535167  1.0
  O  O6  1  0.55250683  0.19358350  0.76535167  1.0
  O  O6  1  0.30250683  0.44358350  0.14035167  1.0
  O  O6  1  0.30250683  0.44358350  0.39035167  1.0
  O  O6  1  0.30250683  0.44358350  0.64035167  1.0
  O  O6  1  0.30250683  0.44358350  0.89035167  1.0
  O  O6  1  0.05250683  0.69358350  0.01535167  1.0
  O  O6  1  0.05250683  0.69358350  0.26535167  1.0
  O  O6  1  0.05250683  0.69358350  0.51535167  1.0
  O  O6  1  0.05250683  0.69358350  0.76535167  1.0
  O  O6  1  0.63584017  0.44358350  0.05701833  1.0
  O  O6  1  0.63584017  0.44358350  0.30701833  1.0
  O  O6  1  0.63584017  0.44358350  0.55701833  1.0
  O  O6  1  0.63584017  0.44358350  0.80701833  1.0
  O  O6  1  0.38584017  0.69358350  0.93201833  1.0
  O  O6  1  0.38584017  0.69358350  0.18201833  1.0
  O  O6  1  0.38584017  0.69358350  0.43201833  1.0
  O  O6  1  0.38584017  0.69358350  0.68201833  1.0
  O  O6  1  0.13584017  0.94358350  0.05701833  1.0
  O  O6  1  0.13584017  0.94358350  0.30701833  1.0
  O  O6  1  0.13584017  0.94358350  0.55701833  1.0
  O  O6  1  0.13584017  0.94358350  0.80701833  1.0
  O  O6  1  0.71917350  0.69358350  0.09868500  1.0
  O  O6  1  0.71917350  0.69358350  0.34868500  1.0
  O  O6  1  0.71917350  0.69358350  0.59868500  1.0
  O  O6  1  0.71917350  0.69358350  0.84868500  1.0
  O  O6  1  0.46917350  0.94358350  0.97368500  1.0
  O  O6  1  0.46917350  0.94358350  0.22368500  1.0
  O  O6  1  0.46917350  0.94358350  0.47368500  1.0
  O  O6  1  0.46917350  0.94358350  0.72368500  1.0
  O  O6  1  0.80250683  0.94358350  0.14035167  1.0
  O  O6  1  0.80250683  0.94358350  0.39035167  1.0
  O  O6  1  0.80250683  0.94358350  0.64035167  1.0
  O  O6  1  0.80250683  0.94358350  0.89035167  1.0
  O  O7  1  0.19873850  0.05941650  0.95440325  1.0
  O  O7  1  0.19873850  0.05941650  0.20440325  1.0
  O  O7  1  0.19873850  0.05941650  0.45440325  1.0
  O  O7  1  0.19873850  0.05941650  0.70440325  1.0
  O  O7  1  0.53207183  0.05941650  0.12106992  1.0
  O  O7  1  0.53207183  0.05941650  0.37106992  1.0
  O  O7  1  0.53207183  0.05941650  0.62106992  1.0
  O  O7  1  0.53207183  0.05941650  0.87106992  1.0
  O  O7  1  0.28207183  0.30941650  0.99606992  1.0
  O  O7  1  0.28207183  0.30941650  0.24606992  1.0
  O  O7  1  0.28207183  0.30941650  0.49606992  1.0
  O  O7  1  0.28207183  0.30941650  0.74606992  1.0
  O  O7  1  0.86540517  0.05941650  0.03773658  1.0
  O  O7  1  0.86540517  0.05941650  0.28773658  1.0
  O  O7  1  0.86540517  0.05941650  0.53773658  1.0
  O  O7  1  0.86540517  0.05941650  0.78773658  1.0
  O  O7  1  0.61540517  0.30941650  0.16273658  1.0
  O  O7  1  0.61540517  0.30941650  0.41273658  1.0
  O  O7  1  0.61540517  0.30941650  0.66273658  1.0
  O  O7  1  0.61540517  0.30941650  0.91273658  1.0
  O  O7  1  0.36540517  0.55941650  0.03773658  1.0
  O  O7  1  0.36540517  0.55941650  0.28773658  1.0
  O  O7  1  0.36540517  0.55941650  0.53773658  1.0
  O  O7  1  0.36540517  0.55941650  0.78773658  1.0
  O  O7  1  0.94873850  0.30941650  0.07940325  1.0
  O  O7  1  0.94873850  0.30941650  0.32940325  1.0
  O  O7  1  0.94873850  0.30941650  0.57940325  1.0
  O  O7  1  0.94873850  0.30941650  0.82940325  1.0
  O  O7  1  0.69873850  0.55941650  0.95440325  1.0
  O  O7  1  0.69873850  0.55941650  0.20440325  1.0
  O  O7  1  0.69873850  0.55941650  0.45440325  1.0
  O  O7  1  0.69873850  0.55941650  0.70440325  1.0
  O  O7  1  0.44873850  0.80941650  0.07940325  1.0
  O  O7  1  0.44873850  0.80941650  0.32940325  1.0
  O  O7  1  0.44873850  0.80941650  0.57940325  1.0
  O  O7  1  0.44873850  0.80941650  0.82940325  1.0
  O  O7  1  0.03207183  0.55941650  0.12106992  1.0
  O  O7  1  0.03207183  0.55941650  0.37106992  1.0
  O  O7  1  0.03207183  0.55941650  0.62106992  1.0
  O  O7  1  0.03207183  0.55941650  0.87106992  1.0
  O  O7  1  0.78207183  0.80941650  0.99606992  1.0
  O  O7  1  0.78207183  0.80941650  0.24606992  1.0
  O  O7  1  0.78207183  0.80941650  0.49606992  1.0
  O  O7  1  0.78207183  0.80941650  0.74606992  1.0
  O  O7  1  0.11540517  0.80941650  0.16273658  1.0
  O  O7  1  0.11540517  0.80941650  0.41273658  1.0
  O  O7  1  0.11540517  0.80941650  0.66273658  1.0
  O  O7  1  0.11540517  0.80941650  0.91273658  1.0
  O  O8  1  0.88488283  0.19028750  0.08588617  1.0
  O  O8  1  0.88488283  0.19028750  0.33588617  1.0
  O  O8  1  0.88488283  0.19028750  0.58588617  1.0
  O  O8  1  0.88488283  0.19028750  0.83588617  1.0
  O  O8  1  0.21821617  0.19028750  0.25255283  1.0
  O  O8  1  0.21821617  0.19028750  0.50255283  1.0
  O  O8  1  0.21821617  0.19028750  0.75255283  1.0
  O  O8  1  0.21821617  0.19028750  0.00255283  1.0
  O  O8  1  0.96821617  0.44028750  0.12755283  1.0
  O  O8  1  0.96821617  0.44028750  0.37755283  1.0
  O  O8  1  0.96821617  0.44028750  0.62755283  1.0
  O  O8  1  0.96821617  0.44028750  0.87755283  1.0
  O  O8  1  0.55154950  0.19028750  0.16921950  1.0
  O  O8  1  0.55154950  0.19028750  0.41921950  1.0
  O  O8  1  0.55154950  0.19028750  0.66921950  1.0
  O  O8  1  0.55154950  0.19028750  0.91921950  1.0
  O  O8  1  0.30154950  0.44028750  0.29421950  1.0
  O  O8  1  0.30154950  0.44028750  0.54421950  1.0
  O  O8  1  0.30154950  0.44028750  0.79421950  1.0
  O  O8  1  0.30154950  0.44028750  0.04421950  1.0
  O  O8  1  0.05154950  0.69028750  0.16921950  1.0
  O  O8  1  0.05154950  0.69028750  0.41921950  1.0
  O  O8  1  0.05154950  0.69028750  0.66921950  1.0
  O  O8  1  0.05154950  0.69028750  0.91921950  1.0
  O  O8  1  0.63488283  0.44028750  0.21088617  1.0
  O  O8  1  0.63488283  0.44028750  0.46088617  1.0
  O  O8  1  0.63488283  0.44028750  0.71088617  1.0
  O  O8  1  0.63488283  0.44028750  0.96088617  1.0
  O  O8  1  0.38488283  0.69028750  0.08588617  1.0
  O  O8  1  0.38488283  0.69028750  0.33588617  1.0
  O  O8  1  0.38488283  0.69028750  0.58588617  1.0
  O  O8  1  0.38488283  0.69028750  0.83588617  1.0
  O  O8  1  0.13488283  0.94028750  0.21088617  1.0
  O  O8  1  0.13488283  0.94028750  0.46088617  1.0
  O  O8  1  0.13488283  0.94028750  0.71088617  1.0
  O  O8  1  0.13488283  0.94028750  0.96088617  1.0
  O  O8  1  0.71821617  0.69028750  0.25255283  1.0
  O  O8  1  0.71821617  0.69028750  0.50255283  1.0
  O  O8  1  0.71821617  0.69028750  0.75255283  1.0
  O  O8  1  0.71821617  0.69028750  0.00255283  1.0
  O  O8  1  0.46821617  0.94028750  0.12755283  1.0
  O  O8  1  0.46821617  0.94028750  0.37755283  1.0
  O  O8  1  0.46821617  0.94028750  0.62755283  1.0
  O  O8  1  0.46821617  0.94028750  0.87755283  1.0
  O  O8  1  0.80154950  0.94028750  0.29421950  1.0
  O  O8  1  0.80154950  0.94028750  0.54421950  1.0
  O  O8  1  0.80154950  0.94028750  0.79421950  1.0
  O  O8  1  0.80154950  0.94028750  0.04421950  1.0
  O  O9  1  0.12313325  0.10234975  0.11061163  1.0
  O  O9  1  0.12313325  0.10234975  0.36061162  1.0
  O  O9  1  0.12313325  0.10234975  0.61061162  1.0
  O  O9  1  0.12313325  0.10234975  0.86061162  1.0
  O  O9  1  0.45646658  0.10234975  0.27727829  1.0
  O  O9  1  0.45646658  0.10234975  0.52727829  1.0
  O  O9  1  0.45646658  0.10234975  0.77727829  1.0
  O  O9  1  0.45646658  0.10234975  0.02727829  1.0
  O  O9  1  0.20646658  0.35234975  0.15227829  1.0
  O  O9  1  0.20646658  0.35234975  0.40227829  1.0
  O  O9  1  0.20646658  0.35234975  0.65227829  1.0
  O  O9  1  0.20646658  0.35234975  0.90227829  1.0
  O  O9  1  0.78979992  0.10234975  0.19394496  1.0
  O  O9  1  0.78979992  0.10234975  0.44394496  1.0
  O  O9  1  0.78979992  0.10234975  0.69394496  1.0
  O  O9  1  0.78979992  0.10234975  0.94394496  1.0
  O  O9  1  0.53979992  0.35234975  0.31894496  1.0
  O  O9  1  0.53979992  0.35234975  0.56894496  1.0
  O  O9  1  0.53979992  0.35234975  0.81894496  1.0
  O  O9  1  0.53979992  0.35234975  0.06894496  1.0
  O  O9  1  0.28979992  0.60234975  0.19394496  1.0
  O  O9  1  0.28979992  0.60234975  0.44394496  1.0
  O  O9  1  0.28979992  0.60234975  0.69394496  1.0
  O  O9  1  0.28979992  0.60234975  0.94394496  1.0
  O  O9  1  0.87313325  0.35234975  0.23561163  1.0
  O  O9  1  0.87313325  0.35234975  0.48561162  1.0
  O  O9  1  0.87313325  0.35234975  0.73561162  1.0
  O  O9  1  0.87313325  0.35234975  0.98561162  1.0
  O  O9  1  0.62313325  0.60234975  0.11061163  1.0
  O  O9  1  0.62313325  0.60234975  0.36061163  1.0
  O  O9  1  0.62313325  0.60234975  0.61061163  1.0
  O  O9  1  0.62313325  0.60234975  0.86061162  1.0
  O  O9  1  0.37313325  0.85234975  0.23561163  1.0
  O  O9  1  0.37313325  0.85234975  0.48561163  1.0
  O  O9  1  0.37313325  0.85234975  0.73561163  1.0
  O  O9  1  0.37313325  0.85234975  0.98561163  1.0
  O  O9  1  0.95646658  0.60234975  0.27727829  1.0
  O  O9  1  0.95646658  0.60234975  0.52727829  1.0
  O  O9  1  0.95646658  0.60234975  0.77727829  1.0
  O  O9  1  0.95646658  0.60234975  0.02727829  1.0
  O  O9  1  0.70646658  0.85234975  0.15227829  1.0
  O  O9  1  0.70646658  0.85234975  0.40227829  1.0
  O  O9  1  0.70646658  0.85234975  0.65227829  1.0
  O  O9  1  0.70646658  0.85234975  0.90227829  1.0
  O  O9  1  0.03979992  0.85234975  0.31894496  1.0
  O  O9  1  0.03979992  0.85234975  0.56894496  1.0
  O  O9  1  0.03979992  0.85234975  0.81894496  1.0
  O  O9  1  0.03979992  0.85234975  0.06894496  1.0
  O  O10  1  0.96047592  0.14737175  0.92971971  1.0
  O  O10  1  0.96047592  0.14737175  0.17971971  1.0
  O  O10  1  0.96047592  0.14737175  0.42971971  1.0
  O  O10  1  0.96047592  0.14737175  0.67971971  1.0
  O  O10  1  0.29380925  0.14737175  0.09638638  1.0
  O  O10  1  0.29380925  0.14737175  0.34638638  1.0
  O  O10  1  0.29380925  0.14737175  0.59638638  1.0
  O  O10  1  0.29380925  0.14737175  0.84638638  1.0
  O  O10  1  0.04380925  0.39737175  0.97138638  1.0
  O  O10  1  0.04380925  0.39737175  0.22138638  1.0
  O  O10  1  0.04380925  0.39737175  0.47138638  1.0
  O  O10  1  0.04380925  0.39737175  0.72138638  1.0
  O  O10  1  0.62714258  0.14737175  0.01305304  1.0
  O  O10  1  0.62714258  0.14737175  0.26305304  1.0
  O  O10  1  0.62714258  0.14737175  0.51305304  1.0
  O  O10  1  0.62714258  0.14737175  0.76305304  1.0
  O  O10  1  0.37714258  0.39737175  0.13805304  1.0
  O  O10  1  0.37714258  0.39737175  0.38805304  1.0
  O  O10  1  0.37714258  0.39737175  0.63805304  1.0
  O  O10  1  0.37714258  0.39737175  0.88805304  1.0
  O  O10  1  0.12714258  0.64737175  0.01305304  1.0
  O  O10  1  0.12714258  0.64737175  0.26305304  1.0
  O  O10  1  0.12714258  0.64737175  0.51305304  1.0
  O  O10  1  0.12714258  0.64737175  0.76305304  1.0
  O  O10  1  0.71047592  0.39737175  0.05471971  1.0
  O  O10  1  0.71047592  0.39737175  0.30471971  1.0
  O  O10  1  0.71047592  0.39737175  0.55471971  1.0
  O  O10  1  0.71047592  0.39737175  0.80471971  1.0
  O  O10  1  0.46047592  0.64737175  0.92971971  1.0
  O  O10  1  0.46047592  0.64737175  0.17971971  1.0
  O  O10  1  0.46047592  0.64737175  0.42971971  1.0
  O  O10  1  0.46047592  0.64737175  0.67971971  1.0
  O  O10  1  0.21047592  0.89737175  0.05471971  1.0
  O  O10  1  0.21047592  0.89737175  0.30471971  1.0
  O  O10  1  0.21047592  0.89737175  0.55471971  1.0
  O  O10  1  0.21047592  0.89737175  0.80471971  1.0
  O  O10  1  0.79380925  0.64737175  0.09638638  1.0
  O  O10  1  0.79380925  0.64737175  0.34638638  1.0
  O  O10  1  0.79380925  0.64737175  0.59638638  1.0
  O  O10  1  0.79380925  0.64737175  0.84638638  1.0
  O  O10  1  0.54380925  0.89737175  0.97138638  1.0
  O  O10  1  0.54380925  0.89737175  0.22138638  1.0
  O  O10  1  0.54380925  0.89737175  0.47138638  1.0
  O  O10  1  0.54380925  0.89737175  0.72138638  1.0
  O  O10  1  0.87714258  0.89737175  0.13805304  1.0
  O  O10  1  0.87714258  0.89737175  0.38805304  1.0
  O  O10  1  0.87714258  0.89737175  0.63805304  1.0
  O  O10  1  0.87714258  0.89737175  0.88805304  1.0
  O  O11  1  0.11596050  0.08126650  0.94063900  1.0
  O  O11  1  0.11596050  0.08126650  0.19063900  1.0
  O  O11  1  0.11596050  0.08126650  0.44063900  1.0
  O  O11  1  0.11596050  0.08126650  0.69063900  1.0
  O  O11  1  0.44929383  0.08126650  0.10730567  1.0
  O  O11  1  0.44929383  0.08126650  0.35730567  1.0
  O  O11  1  0.44929383  0.08126650  0.60730567  1.0
  O  O11  1  0.44929383  0.08126650  0.85730567  1.0
  O  O11  1  0.19929383  0.33126650  0.98230567  1.0
  O  O11  1  0.19929383  0.33126650  0.23230567  1.0
  O  O11  1  0.19929383  0.33126650  0.48230567  1.0
  O  O11  1  0.19929383  0.33126650  0.73230567  1.0
  O  O11  1  0.78262717  0.08126650  0.02397233  1.0
  O  O11  1  0.78262717  0.08126650  0.27397233  1.0
  O  O11  1  0.78262717  0.08126650  0.52397233  1.0
  O  O11  1  0.78262717  0.08126650  0.77397233  1.0
  O  O11  1  0.53262717  0.33126650  0.14897233  1.0
  O  O11  1  0.53262717  0.33126650  0.39897233  1.0
  O  O11  1  0.53262717  0.33126650  0.64897233  1.0
  O  O11  1  0.53262717  0.33126650  0.89897233  1.0
  O  O11  1  0.28262717  0.58126650  0.02397233  1.0
  O  O11  1  0.28262717  0.58126650  0.27397233  1.0
  O  O11  1  0.28262717  0.58126650  0.52397233  1.0
  O  O11  1  0.28262717  0.58126650  0.77397233  1.0
  O  O11  1  0.86596050  0.33126650  0.06563900  1.0
  O  O11  1  0.86596050  0.33126650  0.31563900  1.0
  O  O11  1  0.86596050  0.33126650  0.56563900  1.0
  O  O11  1  0.86596050  0.33126650  0.81563900  1.0
  O  O11  1  0.61596050  0.58126650  0.94063900  1.0
  O  O11  1  0.61596050  0.58126650  0.19063900  1.0
  O  O11  1  0.61596050  0.58126650  0.44063900  1.0
  O  O11  1  0.61596050  0.58126650  0.69063900  1.0
  O  O11  1  0.36596050  0.83126650  0.06563900  1.0
  O  O11  1  0.36596050  0.83126650  0.31563900  1.0
  O  O11  1  0.36596050  0.83126650  0.56563900  1.0
  O  O11  1  0.36596050  0.83126650  0.81563900  1.0
  O  O11  1  0.94929383  0.58126650  0.10730567  1.0
  O  O11  1  0.94929383  0.58126650  0.35730567  1.0
  O  O11  1  0.94929383  0.58126650  0.60730567  1.0
  O  O11  1  0.94929383  0.58126650  0.85730567  1.0
  O  O11  1  0.69929383  0.83126650  0.98230567  1.0
  O  O11  1  0.69929383  0.83126650  0.23230567  1.0
  O  O11  1  0.69929383  0.83126650  0.48230567  1.0
  O  O11  1  0.69929383  0.83126650  0.73230567  1.0
  O  O11  1  0.03262717  0.83126650  0.14897233  1.0
  O  O11  1  0.03262717  0.83126650  0.39897233  1.0
  O  O11  1  0.03262717  0.83126650  0.64897233  1.0
  O  O11  1  0.03262717  0.83126650  0.89897233  1.0
  O  O12  1  0.96765175  0.16844125  0.09969363  1.0
  O  O12  1  0.96765175  0.16844125  0.34969363  1.0
  O  O12  1  0.96765175  0.16844125  0.59969363  1.0
  O  O12  1  0.96765175  0.16844125  0.84969363  1.0
  O  O12  1  0.30098508  0.16844125  0.26636029  1.0
  O  O12  1  0.30098508  0.16844125  0.51636029  1.0
  O  O12  1  0.30098508  0.16844125  0.76636029  1.0
  O  O12  1  0.30098508  0.16844125  0.01636029  1.0
  O  O12  1  0.05098508  0.41844125  0.14136029  1.0
  O  O12  1  0.05098508  0.41844125  0.39136029  1.0
  O  O12  1  0.05098508  0.41844125  0.64136029  1.0
  O  O12  1  0.05098508  0.41844125  0.89136029  1.0
  O  O12  1  0.63431842  0.16844125  0.18302696  1.0
  O  O12  1  0.63431842  0.16844125  0.43302696  1.0
  O  O12  1  0.63431842  0.16844125  0.68302696  1.0
  O  O12  1  0.63431842  0.16844125  0.93302696  1.0
  O  O12  1  0.38431842  0.41844125  0.30802696  1.0
  O  O12  1  0.38431842  0.41844125  0.55802696  1.0
  O  O12  1  0.38431842  0.41844125  0.80802696  1.0
  O  O12  1  0.38431842  0.41844125  0.05802696  1.0
  O  O12  1  0.13431842  0.66844125  0.18302696  1.0
  O  O12  1  0.13431842  0.66844125  0.43302696  1.0
  O  O12  1  0.13431842  0.66844125  0.68302696  1.0
  O  O12  1  0.13431842  0.66844125  0.93302696  1.0
  O  O12  1  0.71765175  0.41844125  0.22469363  1.0
  O  O12  1  0.71765175  0.41844125  0.47469363  1.0
  O  O12  1  0.71765175  0.41844125  0.72469363  1.0
  O  O12  1  0.71765175  0.41844125  0.97469363  1.0
  O  O12  1  0.46765175  0.66844125  0.09969363  1.0
  O  O12  1  0.46765175  0.66844125  0.34969363  1.0
  O  O12  1  0.46765175  0.66844125  0.59969363  1.0
  O  O12  1  0.46765175  0.66844125  0.84969363  1.0
  O  O12  1  0.21765175  0.91844125  0.22469363  1.0
  O  O12  1  0.21765175  0.91844125  0.47469363  1.0
  O  O12  1  0.21765175  0.91844125  0.72469363  1.0
  O  O12  1  0.21765175  0.91844125  0.97469363  1.0
  O  O12  1  0.80098508  0.66844125  0.26636029  1.0
  O  O12  1  0.80098508  0.66844125  0.51636029  1.0
  O  O12  1  0.80098508  0.66844125  0.76636029  1.0
  O  O12  1  0.80098508  0.66844125  0.01636029  1.0
  O  O12  1  0.55098508  0.91844125  0.14136029  1.0
  O  O12  1  0.55098508  0.91844125  0.39136029  1.0
  O  O12  1  0.55098508  0.91844125  0.64136029  1.0
  O  O12  1  0.55098508  0.91844125  0.89136029  1.0
  O  O12  1  0.88431842  0.91844125  0.30802696  1.0
  O  O12  1  0.88431842  0.91844125  0.55802696  1.0
  O  O12  1  0.88431842  0.91844125  0.80802696  1.0
  O  O12  1  0.88431842  0.91844125  0.05802696  1.0
  O  O13  1  0.12446675  0.04249825  0.05506813  1.0
  O  O13  1  0.12446675  0.04249825  0.30506813  1.0
  O  O13  1  0.12446675  0.04249825  0.55506813  1.0
  O  O13  1  0.12446675  0.04249825  0.80506813  1.0
  O  O13  1  0.45780008  0.04249825  0.22173479  1.0
  O  O13  1  0.45780008  0.04249825  0.47173479  1.0
  O  O13  1  0.45780008  0.04249825  0.72173479  1.0
  O  O13  1  0.45780008  0.04249825  0.97173479  1.0
  O  O13  1  0.20780008  0.29249825  0.09673479  1.0
  O  O13  1  0.20780008  0.29249825  0.34673479  1.0
  O  O13  1  0.20780008  0.29249825  0.59673479  1.0
  O  O13  1  0.20780008  0.29249825  0.84673479  1.0
  O  O13  1  0.79113342  0.04249825  0.13840146  1.0
  O  O13  1  0.79113342  0.04249825  0.38840146  1.0
  O  O13  1  0.79113342  0.04249825  0.63840146  1.0
  O  O13  1  0.79113342  0.04249825  0.88840146  1.0
  O  O13  1  0.54113342  0.29249825  0.26340146  1.0
  O  O13  1  0.54113342  0.29249825  0.51340146  1.0
  O  O13  1  0.54113342  0.29249825  0.76340146  1.0
  O  O13  1  0.54113342  0.29249825  0.01340146  1.0
  O  O13  1  0.29113342  0.54249825  0.13840146  1.0
  O  O13  1  0.29113342  0.54249825  0.38840146  1.0
  O  O13  1  0.29113342  0.54249825  0.63840146  1.0
  O  O13  1  0.29113342  0.54249825  0.88840146  1.0
  O  O13  1  0.87446675  0.29249825  0.18006813  1.0
  O  O13  1  0.87446675  0.29249825  0.43006813  1.0
  O  O13  1  0.87446675  0.29249825  0.68006813  1.0
  O  O13  1  0.87446675  0.29249825  0.93006813  1.0
  O  O13  1  0.62446675  0.54249825  0.05506813  1.0
  O  O13  1  0.62446675  0.54249825  0.30506813  1.0
  O  O13  1  0.62446675  0.54249825  0.55506813  1.0
  O  O13  1  0.62446675  0.54249825  0.80506813  1.0
  O  O13  1  0.37446675  0.79249825  0.18006812  1.0
  O  O13  1  0.37446675  0.79249825  0.43006813  1.0
  O  O13  1  0.37446675  0.79249825  0.68006813  1.0
  O  O13  1  0.37446675  0.79249825  0.93006813  1.0
  O  O13  1  0.95780008  0.54249825  0.22173479  1.0
  O  O13  1  0.95780008  0.54249825  0.47173479  1.0
  O  O13  1  0.95780008  0.54249825  0.72173479  1.0
  O  O13  1  0.95780008  0.54249825  0.97173479  1.0
  O  O13  1  0.70780008  0.79249825  0.09673479  1.0
  O  O13  1  0.70780008  0.79249825  0.34673479  1.0
  O  O13  1  0.70780008  0.79249825  0.59673479  1.0
  O  O13  1  0.70780008  0.79249825  0.84673479  1.0
  O  O13  1  0.04113342  0.79249825  0.26340146  1.0
  O  O13  1  0.04113342  0.79249825  0.51340146  1.0
  O  O13  1  0.04113342  0.79249825  0.76340146  1.0
  O  O13  1  0.04113342  0.79249825  0.01340146  1.0
  O  O14  1  0.95910783  0.20720050  0.98527817  1.0
  O  O14  1  0.95910783  0.20720050  0.23527817  1.0
  O  O14  1  0.95910783  0.20720050  0.48527817  1.0
  O  O14  1  0.95910783  0.20720050  0.73527817  1.0
  O  O14  1  0.29244117  0.20720050  0.15194483  1.0
  O  O14  1  0.29244117  0.20720050  0.40194483  1.0
  O  O14  1  0.29244117  0.20720050  0.65194483  1.0
  O  O14  1  0.29244117  0.20720050  0.90194483  1.0
  O  O14  1  0.04244117  0.45720050  0.02694483  1.0
  O  O14  1  0.04244117  0.45720050  0.27694483  1.0
  O  O14  1  0.04244117  0.45720050  0.52694483  1.0
  O  O14  1  0.04244117  0.45720050  0.77694483  1.0
  O  O14  1  0.62577450  0.20720050  0.06861150  1.0
  O  O14  1  0.62577450  0.20720050  0.31861150  1.0
  O  O14  1  0.62577450  0.20720050  0.56861150  1.0
  O  O14  1  0.62577450  0.20720050  0.81861150  1.0
  O  O14  1  0.37577450  0.45720050  0.19361150  1.0
  O  O14  1  0.37577450  0.45720050  0.44361150  1.0
  O  O14  1  0.37577450  0.45720050  0.69361150  1.0
  O  O14  1  0.37577450  0.45720050  0.94361150  1.0
  O  O14  1  0.12577450  0.70720050  0.06861150  1.0
  O  O14  1  0.12577450  0.70720050  0.31861150  1.0
  O  O14  1  0.12577450  0.70720050  0.56861150  1.0
  O  O14  1  0.12577450  0.70720050  0.81861150  1.0
  O  O14  1  0.70910783  0.45720050  0.11027817  1.0
  O  O14  1  0.70910783  0.45720050  0.36027817  1.0
  O  O14  1  0.70910783  0.45720050  0.61027817  1.0
  O  O14  1  0.70910783  0.45720050  0.86027817  1.0
  O  O14  1  0.45910783  0.70720050  0.98527817  1.0
  O  O14  1  0.45910783  0.70720050  0.23527817  1.0
  O  O14  1  0.45910783  0.70720050  0.48527817  1.0
  O  O14  1  0.45910783  0.70720050  0.73527817  1.0
  O  O14  1  0.20910783  0.95720050  0.11027817  1.0
  O  O14  1  0.20910783  0.95720050  0.36027817  1.0
  O  O14  1  0.20910783  0.95720050  0.61027817  1.0
  O  O14  1  0.20910783  0.95720050  0.86027817  1.0
  O  O14  1  0.79244117  0.70720050  0.15194483  1.0
  O  O14  1  0.79244117  0.70720050  0.40194483  1.0
  O  O14  1  0.79244117  0.70720050  0.65194483  1.0
  O  O14  1  0.79244117  0.70720050  0.90194483  1.0
  O  O14  1  0.54244117  0.95720050  0.02694483  1.0
  O  O14  1  0.54244117  0.95720050  0.27694483  1.0
  O  O14  1  0.54244117  0.95720050  0.52694483  1.0
  O  O14  1  0.54244117  0.95720050  0.77694483  1.0
  O  O14  1  0.87577450  0.95720050  0.19361150  1.0
  O  O14  1  0.87577450  0.95720050  0.44361150  1.0
  O  O14  1  0.87577450  0.95720050  0.69361150  1.0
  O  O14  1  0.87577450  0.95720050  0.94361150  1.0
  O  O15  1  0.15183200  0.12497400  0.99891975  1.0
  O  O15  1  0.15183200  0.12497400  0.24891975  1.0
  O  O15  1  0.15183200  0.12497400  0.49891975  1.0
  O  O15  1  0.15183200  0.12497400  0.74891975  1.0
  O  O15  1  0.48516533  0.12497400  0.16558642  1.0
  O  O15  1  0.48516533  0.12497400  0.41558642  1.0
  O  O15  1  0.48516533  0.12497400  0.66558642  1.0
  O  O15  1  0.48516533  0.12497400  0.91558642  1.0
  O  O15  1  0.23516533  0.37497400  0.04058642  1.0
  O  O15  1  0.23516533  0.37497400  0.29058642  1.0
  O  O15  1  0.23516533  0.37497400  0.54058642  1.0
  O  O15  1  0.23516533  0.37497400  0.79058642  1.0
  O  O15  1  0.81849867  0.12497400  0.08225308  1.0
  O  O15  1  0.81849867  0.12497400  0.33225308  1.0
  O  O15  1  0.81849867  0.12497400  0.58225308  1.0
  O  O15  1  0.81849867  0.12497400  0.83225308  1.0
  O  O15  1  0.56849867  0.37497400  0.20725308  1.0
  O  O15  1  0.56849867  0.37497400  0.45725308  1.0
  O  O15  1  0.56849867  0.37497400  0.70725308  1.0
  O  O15  1  0.56849867  0.37497400  0.95725308  1.0
  O  O15  1  0.31849867  0.62497400  0.08225308  1.0
  O  O15  1  0.31849867  0.62497400  0.33225308  1.0
  O  O15  1  0.31849867  0.62497400  0.58225308  1.0
  O  O15  1  0.31849867  0.62497400  0.83225308  1.0
  O  O15  1  0.90183200  0.37497400  0.12391975  1.0
  O  O15  1  0.90183200  0.37497400  0.37391975  1.0
  O  O15  1  0.90183200  0.37497400  0.62391975  1.0
  O  O15  1  0.90183200  0.37497400  0.87391975  1.0
  O  O15  1  0.65183200  0.62497400  0.99891975  1.0
  O  O15  1  0.65183200  0.62497400  0.24891975  1.0
  O  O15  1  0.65183200  0.62497400  0.49891975  1.0
  O  O15  1  0.65183200  0.62497400  0.74891975  1.0
  O  O15  1  0.40183200  0.87497400  0.12391975  1.0
  O  O15  1  0.40183200  0.87497400  0.37391975  1.0
  O  O15  1  0.40183200  0.87497400  0.62391975  1.0
  O  O15  1  0.40183200  0.87497400  0.87391975  1.0
  O  O15  1  0.98516533  0.62497400  0.16558642  1.0
  O  O15  1  0.98516533  0.62497400  0.41558642  1.0
  O  O15  1  0.98516533  0.62497400  0.66558642  1.0
  O  O15  1  0.98516533  0.62497400  0.91558642  1.0
  O  O15  1  0.73516533  0.87497400  0.04058642  1.0
  O  O15  1  0.73516533  0.87497400  0.29058642  1.0
  O  O15  1  0.73516533  0.87497400  0.54058642  1.0
  O  O15  1  0.73516533  0.87497400  0.79058642  1.0
  O  O15  1  0.06849867  0.87497400  0.20725308  1.0
  O  O15  1  0.06849867  0.87497400  0.45725308  1.0
  O  O15  1  0.06849867  0.87497400  0.70725308  1.0
  O  O15  1  0.06849867  0.87497400  0.95725308  1.0
  O  O16  1  0.93179550  0.12470950  0.04142000  1.0
  O  O16  1  0.93179550  0.12470950  0.29142000  1.0
  O  O16  1  0.93179550  0.12470950  0.54142000  1.0
  O  O16  1  0.93179550  0.12470950  0.79142000  1.0
  O  O16  1  0.26512883  0.12470950  0.20808667  1.0
  O  O16  1  0.26512883  0.12470950  0.45808667  1.0
  O  O16  1  0.26512883  0.12470950  0.70808667  1.0
  O  O16  1  0.26512883  0.12470950  0.95808667  1.0
  O  O16  1  0.01512883  0.37470950  0.08308667  1.0
  O  O16  1  0.01512883  0.37470950  0.33308667  1.0
  O  O16  1  0.01512883  0.37470950  0.58308667  1.0
  O  O16  1  0.01512883  0.37470950  0.83308667  1.0
  O  O16  1  0.59846217  0.12470950  0.12475333  1.0
  O  O16  1  0.59846217  0.12470950  0.37475333  1.0
  O  O16  1  0.59846217  0.12470950  0.62475333  1.0
  O  O16  1  0.59846217  0.12470950  0.87475333  1.0
  O  O16  1  0.34846217  0.37470950  0.24975333  1.0
  O  O16  1  0.34846217  0.37470950  0.49975333  1.0
  O  O16  1  0.34846217  0.37470950  0.74975333  1.0
  O  O16  1  0.34846217  0.37470950  0.99975333  1.0
  O  O16  1  0.09846217  0.62470950  0.12475333  1.0
  O  O16  1  0.09846217  0.62470950  0.37475333  1.0
  O  O16  1  0.09846217  0.62470950  0.62475333  1.0
  O  O16  1  0.09846217  0.62470950  0.87475333  1.0
  O  O16  1  0.68179550  0.37470950  0.16642000  1.0
  O  O16  1  0.68179550  0.37470950  0.41642000  1.0
  O  O16  1  0.68179550  0.37470950  0.66642000  1.0
  O  O16  1  0.68179550  0.37470950  0.91642000  1.0
  O  O16  1  0.43179550  0.62470950  0.04142000  1.0
  O  O16  1  0.43179550  0.62470950  0.29142000  1.0
  O  O16  1  0.43179550  0.62470950  0.54142000  1.0
  O  O16  1  0.43179550  0.62470950  0.79142000  1.0
  O  O16  1  0.18179550  0.87470950  0.16642000  1.0
  O  O16  1  0.18179550  0.87470950  0.41642000  1.0
  O  O16  1  0.18179550  0.87470950  0.66642000  1.0
  O  O16  1  0.18179550  0.87470950  0.91642000  1.0
  O  O16  1  0.76512883  0.62470950  0.20808667  1.0
  O  O16  1  0.76512883  0.62470950  0.45808667  1.0
  O  O16  1  0.76512883  0.62470950  0.70808667  1.0
  O  O16  1  0.76512883  0.62470950  0.95808667  1.0
  O  O16  1  0.51512883  0.87470950  0.08308667  1.0
  O  O16  1  0.51512883  0.87470950  0.33308667  1.0
  O  O16  1  0.51512883  0.87470950  0.58308667  1.0
  O  O16  1  0.51512883  0.87470950  0.83308667  1.0
  O  O16  1  0.84846217  0.87470950  0.24975333  1.0
  O  O16  1  0.84846217  0.87470950  0.49975333  1.0
  O  O16  1  0.84846217  0.87470950  0.74975333  1.0
  O  O16  1  0.84846217  0.87470950  0.99975333  1.0
